version 2
run Net5-0-20171130-12:18:30-10003
attr configname Net5
attr datetime 20171130-12:18:30
attr experiment Net5
attr inifile omnetpp.ini
attr iterationvars ""
attr iterationvars2 $repetition=0
attr measurement ""
attr network networks.Net5
attr processid 10003
attr repetition 0
attr replication #0
attr resultdir results
attr runnumber 0
attr seedset 0

scalar Net5.rte[0].app 	hopCount:mean 	1
attr interpolationmode  none
attr title  "hop count of arrived packets, mean"
scalar Net5.rte[0].app 	hopCount:max 	1
attr interpolationmode  none
attr title  "hop count of arrived packets, max"
scalar Net5.rte[0].app 	endToEndDelay:mean 	0.009192
attr interpolationmode  none
attr title  "end-to-end delay of arrived packets, mean"
attr unit  s
scalar Net5.rte[0].app 	endToEndDelay:max 	0.009192
attr interpolationmode  none
attr title  "end-to-end delay of arrived packets, max"
attr unit  s
statistic Net5.rte[0].routing 	outputIf:histogram
field count 4
field mean -0.25
field stddev 0.5
field sum -1
field sqrsum 1
field min -1
field max 0
attr interpolationmode  none
attr title  "output interface for each routed packet, histogram"
bin	-INF	0
bin	-2	0
bin	-1	1
bin	0	3
bin	1	0
scalar Net5.rte[0].routing 	drop:count 	0
attr interpolationmode  none
attr title  "dropped packet byte length, count"
attr unit  bytes
scalar Net5.rte[0].routing 	drop:sum 	0
attr interpolationmode  none
attr title  "dropped packet byte length, sum"
attr unit  bytes
scalar Net5.rte[0].queue[0] 	rxBytes:count 	1
attr interpolationmode  none
attr title  "received packet byte length, count"
attr unit  bytes
scalar Net5.rte[0].queue[0] 	rxBytes:sum 	1024
attr interpolationmode  none
attr title  "received packet byte length, sum"
attr unit  bytes
statistic Net5.rte[0].queue[0] 	rxBytes:histogram
field count 1
field mean 1024
field stddev -nan
field sum 1024
field sqrsum 1048576
field min 1024
field max 1024
attr interpolationmode  none
attr title  "received packet byte length, histogram"
attr unit  bytes
bin	-INF	0
bin	1023	0
bin	1024	1
bin	1025	0
scalar Net5.rte[0].queue[0] 	txBytes:count 	3
attr interpolationmode  none
attr title  "transmitting packet byte length, count"
attr unit  bytes
scalar Net5.rte[0].queue[0] 	txBytes:sum 	3072
attr interpolationmode  none
attr title  "transmitting packet byte length, sum"
attr unit  bytes
statistic Net5.rte[0].queue[0] 	txBytes:histogram
field count 3
field mean 1024
field stddev 0
field sum 3072
field sqrsum 3145728
field min 1024
field max 1024
attr interpolationmode  none
attr title  "transmitting packet byte length, histogram"
attr unit  bytes
bin	-INF	0
bin	1023	0
bin	1024	3
bin	1025	0
scalar Net5.rte[0].queue[0] 	busy:timeavg 	0.43259707173489
attr interpolationmode  sample-hold
attr title  "server busy state, timeavg"
scalar Net5.rte[0].queue[0] 	qlen:timeavg 	0
attr interpolationmode  sample-hold
attr title  "queue length, timeavg"
scalar Net5.rte[0].queue[0] 	qlen:max 	0
attr interpolationmode  sample-hold
attr title  "queue length, max"
scalar Net5.rte[0].queue[0] 	drop:count 	0
attr interpolationmode  none
attr title  "dropped packet byte length, count"
attr unit  bytes
scalar Net5.rte[0].queue[0] 	drop:sum 	0
attr interpolationmode  none
attr title  "dropped packet byte length, sum"
attr unit  bytes
scalar Net5.rte[0].queue[1] 	rxBytes:count 	0
attr interpolationmode  none
attr title  "received packet byte length, count"
attr unit  bytes
scalar Net5.rte[0].queue[1] 	rxBytes:sum 	0
attr interpolationmode  none
attr title  "received packet byte length, sum"
attr unit  bytes
statistic Net5.rte[0].queue[1] 	rxBytes:histogram
field count 0
field mean 0
field stddev -nan
field sum 0
field sqrsum 0
field min 0
field max 0
attr interpolationmode  none
attr title  "received packet byte length, histogram"
attr unit  bytes
bin	-INF	0
bin	-0.5	0
bin	-0.46666666666667	0
bin	-0.43333333333333	0
bin	-0.4	0
bin	-0.36666666666667	0
bin	-0.33333333333333	0
bin	-0.3	0
bin	-0.26666666666667	0
bin	-0.23333333333333	0
bin	-0.2	0
bin	-0.16666666666667	0
bin	-0.13333333333333	0
bin	-0.1	0
bin	-0.066666666666667	0
bin	-0.033333333333333	0
bin	0	0
bin	0.033333333333333	0
bin	0.066666666666667	0
bin	0.1	0
bin	0.13333333333333	0
bin	0.16666666666667	0
bin	0.2	0
bin	0.23333333333333	0
bin	0.26666666666667	0
bin	0.3	0
bin	0.33333333333333	0
bin	0.36666666666667	0
bin	0.4	0
bin	0.43333333333333	0
bin	0.46666666666667	0
bin	0.5	0
scalar Net5.rte[0].queue[1] 	txBytes:count 	0
attr interpolationmode  none
attr title  "transmitting packet byte length, count"
attr unit  bytes
scalar Net5.rte[0].queue[1] 	txBytes:sum 	0
attr interpolationmode  none
attr title  "transmitting packet byte length, sum"
attr unit  bytes
statistic Net5.rte[0].queue[1] 	txBytes:histogram
field count 0
field mean 0
field stddev -nan
field sum 0
field sqrsum 0
field min 0
field max 0
attr interpolationmode  none
attr title  "transmitting packet byte length, histogram"
attr unit  bytes
bin	-INF	0
bin	-0.5	0
bin	-0.46666666666667	0
bin	-0.43333333333333	0
bin	-0.4	0
bin	-0.36666666666667	0
bin	-0.33333333333333	0
bin	-0.3	0
bin	-0.26666666666667	0
bin	-0.23333333333333	0
bin	-0.2	0
bin	-0.16666666666667	0
bin	-0.13333333333333	0
bin	-0.1	0
bin	-0.066666666666667	0
bin	-0.033333333333333	0
bin	0	0
bin	0.033333333333333	0
bin	0.066666666666667	0
bin	0.1	0
bin	0.13333333333333	0
bin	0.16666666666667	0
bin	0.2	0
bin	0.23333333333333	0
bin	0.26666666666667	0
bin	0.3	0
bin	0.33333333333333	0
bin	0.36666666666667	0
bin	0.4	0
bin	0.43333333333333	0
bin	0.46666666666667	0
bin	0.5	0
scalar Net5.rte[0].queue[1] 	busy:timeavg 	0
attr interpolationmode  sample-hold
attr title  "server busy state, timeavg"
scalar Net5.rte[0].queue[1] 	qlen:timeavg 	0
attr interpolationmode  sample-hold
attr title  "queue length, timeavg"
scalar Net5.rte[0].queue[1] 	qlen:max 	0
attr interpolationmode  sample-hold
attr title  "queue length, max"
scalar Net5.rte[0].queue[1] 	drop:count 	0
attr interpolationmode  none
attr title  "dropped packet byte length, count"
attr unit  bytes
scalar Net5.rte[0].queue[1] 	drop:sum 	0
attr interpolationmode  none
attr title  "dropped packet byte length, sum"
attr unit  bytes
scalar Net5.rte[1].app 	hopCount:mean 	1
attr interpolationmode  none
attr title  "hop count of arrived packets, mean"
scalar Net5.rte[1].app 	hopCount:max 	1
attr interpolationmode  none
attr title  "hop count of arrived packets, max"
scalar Net5.rte[1].app 	endToEndDelay:mean 	0.0093779903275
attr interpolationmode  none
attr title  "end-to-end delay of arrived packets, mean"
attr unit  s
scalar Net5.rte[1].app 	endToEndDelay:max 	0.00993596131
attr interpolationmode  none
attr title  "end-to-end delay of arrived packets, max"
attr unit  s
statistic Net5.rte[1].routing 	outputIf:histogram
field count 8
field mean -0.125
field stddev 1.1259916264596
field sum -1
field sqrsum 9
field min -1
field max 2
attr interpolationmode  none
attr title  "output interface for each routed packet, histogram"
bin	-INF	0
bin	-3	0
bin	-2	0
bin	-1	4
bin	0	2
bin	1	1
bin	2	1
bin	3	0
bin	4	0
scalar Net5.rte[1].routing 	drop:count 	0
attr interpolationmode  none
attr title  "dropped packet byte length, count"
attr unit  bytes
scalar Net5.rte[1].routing 	drop:sum 	0
attr interpolationmode  none
attr title  "dropped packet byte length, sum"
attr unit  bytes
scalar Net5.rte[1].queue[0] 	rxBytes:count 	2
attr interpolationmode  none
attr title  "received packet byte length, count"
attr unit  bytes
scalar Net5.rte[1].queue[0] 	rxBytes:sum 	2048
attr interpolationmode  none
attr title  "received packet byte length, sum"
attr unit  bytes
statistic Net5.rte[1].queue[0] 	rxBytes:histogram
field count 2
field mean 1024
field stddev 0
field sum 2048
field sqrsum 2097152
field min 1024
field max 1024
attr interpolationmode  none
attr title  "received packet byte length, histogram"
attr unit  bytes
bin	-INF	0
bin	1023	0
bin	1024	2
bin	1025	0
scalar Net5.rte[1].queue[0] 	txBytes:count 	2
attr interpolationmode  none
attr title  "transmitting packet byte length, count"
attr unit  bytes
scalar Net5.rte[1].queue[0] 	txBytes:sum 	2048
attr interpolationmode  none
attr title  "transmitting packet byte length, sum"
attr unit  bytes
statistic Net5.rte[1].queue[0] 	txBytes:histogram
field count 2
field mean 1024
field stddev 0
field sum 2048
field sqrsum 2097152
field min 1024
field max 1024
attr interpolationmode  none
attr title  "transmitting packet byte length, histogram"
attr unit  bytes
bin	-INF	0
bin	1023	0
bin	1024	2
bin	1025	0
scalar Net5.rte[1].queue[0] 	busy:timeavg 	0.21605244463774
attr interpolationmode  sample-hold
attr title  "server busy state, timeavg"
scalar Net5.rte[1].queue[0] 	qlen:timeavg 	0
attr interpolationmode  sample-hold
attr title  "queue length, timeavg"
scalar Net5.rte[1].queue[0] 	qlen:max 	0
attr interpolationmode  sample-hold
attr title  "queue length, max"
scalar Net5.rte[1].queue[0] 	drop:count 	0
attr interpolationmode  none
attr title  "dropped packet byte length, count"
attr unit  bytes
scalar Net5.rte[1].queue[0] 	drop:sum 	0
attr interpolationmode  none
attr title  "dropped packet byte length, sum"
attr unit  bytes
scalar Net5.rte[1].queue[1] 	rxBytes:count 	3
attr interpolationmode  none
attr title  "received packet byte length, count"
attr unit  bytes
scalar Net5.rte[1].queue[1] 	rxBytes:sum 	3072
attr interpolationmode  none
attr title  "received packet byte length, sum"
attr unit  bytes
statistic Net5.rte[1].queue[1] 	rxBytes:histogram
field count 3
field mean 1024
field stddev 0
field sum 3072
field sqrsum 3145728
field min 1024
field max 1024
attr interpolationmode  none
attr title  "received packet byte length, histogram"
attr unit  bytes
bin	-INF	0
bin	1023	0
bin	1024	3
bin	1025	0
scalar Net5.rte[1].queue[1] 	txBytes:count 	1
attr interpolationmode  none
attr title  "transmitting packet byte length, count"
attr unit  bytes
scalar Net5.rte[1].queue[1] 	txBytes:sum 	1024
attr interpolationmode  none
attr title  "transmitting packet byte length, sum"
attr unit  bytes
statistic Net5.rte[1].queue[1] 	txBytes:histogram
field count 1
field mean 1024
field stddev -nan
field sum 1024
field sqrsum 1048576
field min 1024
field max 1024
attr interpolationmode  none
attr title  "transmitting packet byte length, histogram"
attr unit  bytes
bin	-INF	0
bin	1023	0
bin	1024	1
bin	1025	0
scalar Net5.rte[1].queue[1] 	busy:timeavg 	0.16041790515469
attr interpolationmode  sample-hold
attr title  "server busy state, timeavg"
scalar Net5.rte[1].queue[1] 	qlen:timeavg 	0
attr interpolationmode  sample-hold
attr title  "queue length, timeavg"
scalar Net5.rte[1].queue[1] 	qlen:max 	0
attr interpolationmode  sample-hold
attr title  "queue length, max"
scalar Net5.rte[1].queue[1] 	drop:count 	0
attr interpolationmode  none
attr title  "dropped packet byte length, count"
attr unit  bytes
scalar Net5.rte[1].queue[1] 	drop:sum 	0
attr interpolationmode  none
attr title  "dropped packet byte length, sum"
attr unit  bytes
scalar Net5.rte[1].queue[2] 	rxBytes:count 	0
attr interpolationmode  none
attr title  "received packet byte length, count"
attr unit  bytes
scalar Net5.rte[1].queue[2] 	rxBytes:sum 	0
attr interpolationmode  none
attr title  "received packet byte length, sum"
attr unit  bytes
statistic Net5.rte[1].queue[2] 	rxBytes:histogram
field count 0
field mean 0
field stddev -nan
field sum 0
field sqrsum 0
field min 0
field max 0
attr interpolationmode  none
attr title  "received packet byte length, histogram"
attr unit  bytes
bin	-INF	0
bin	-0.5	0
bin	-0.46666666666667	0
bin	-0.43333333333333	0
bin	-0.4	0
bin	-0.36666666666667	0
bin	-0.33333333333333	0
bin	-0.3	0
bin	-0.26666666666667	0
bin	-0.23333333333333	0
bin	-0.2	0
bin	-0.16666666666667	0
bin	-0.13333333333333	0
bin	-0.1	0
bin	-0.066666666666667	0
bin	-0.033333333333333	0
bin	0	0
bin	0.033333333333333	0
bin	0.066666666666667	0
bin	0.1	0
bin	0.13333333333333	0
bin	0.16666666666667	0
bin	0.2	0
bin	0.23333333333333	0
bin	0.26666666666667	0
bin	0.3	0
bin	0.33333333333333	0
bin	0.36666666666667	0
bin	0.4	0
bin	0.43333333333333	0
bin	0.46666666666667	0
bin	0.5	0
scalar Net5.rte[1].queue[2] 	txBytes:count 	1
attr interpolationmode  none
attr title  "transmitting packet byte length, count"
attr unit  bytes
scalar Net5.rte[1].queue[2] 	txBytes:sum 	1024
attr interpolationmode  none
attr title  "transmitting packet byte length, sum"
attr unit  bytes
statistic Net5.rte[1].queue[2] 	txBytes:histogram
field count 1
field mean 1024
field stddev -nan
field sum 1024
field sqrsum 1048576
field min 1024
field max 1024
attr interpolationmode  none
attr title  "transmitting packet byte length, histogram"
attr unit  bytes
bin	-INF	0
bin	1023	0
bin	1024	1
bin	1025	0
scalar Net5.rte[1].queue[2] 	busy:timeavg 	0.16041790515469
attr interpolationmode  sample-hold
attr title  "server busy state, timeavg"
scalar Net5.rte[1].queue[2] 	qlen:timeavg 	0
attr interpolationmode  sample-hold
attr title  "queue length, timeavg"
scalar Net5.rte[1].queue[2] 	qlen:max 	0
attr interpolationmode  sample-hold
attr title  "queue length, max"
scalar Net5.rte[1].queue[2] 	drop:count 	0
attr interpolationmode  none
attr title  "dropped packet byte length, count"
attr unit  bytes
scalar Net5.rte[1].queue[2] 	drop:sum 	0
attr interpolationmode  none
attr title  "dropped packet byte length, sum"
attr unit  bytes
scalar Net5.rte[2].app 	hopCount:mean 	-nan
attr interpolationmode  none
attr title  "hop count of arrived packets, mean"
scalar Net5.rte[2].app 	hopCount:max 	-nan
attr interpolationmode  none
attr title  "hop count of arrived packets, max"
scalar Net5.rte[2].app 	endToEndDelay:mean 	-nan
attr interpolationmode  none
attr title  "end-to-end delay of arrived packets, mean"
attr unit  s
scalar Net5.rte[2].app 	endToEndDelay:max 	-nan
attr interpolationmode  none
attr title  "end-to-end delay of arrived packets, max"
attr unit  s
statistic Net5.rte[2].routing 	outputIf:histogram
field count 5
field mean 1.2
field stddev 0.44721359549996
field sum 6
field sqrsum 8
field min 1
field max 2
attr interpolationmode  none
attr title  "output interface for each routed packet, histogram"
bin	-INF	0
bin	0	0
bin	1	4
bin	2	1
bin	3	0
scalar Net5.rte[2].routing 	drop:count 	0
attr interpolationmode  none
attr title  "dropped packet byte length, count"
attr unit  bytes
scalar Net5.rte[2].routing 	drop:sum 	0
attr interpolationmode  none
attr title  "dropped packet byte length, sum"
attr unit  bytes
scalar Net5.rte[2].queue[0] 	rxBytes:count 	0
attr interpolationmode  none
attr title  "received packet byte length, count"
attr unit  bytes
scalar Net5.rte[2].queue[0] 	rxBytes:sum 	0
attr interpolationmode  none
attr title  "received packet byte length, sum"
attr unit  bytes
statistic Net5.rte[2].queue[0] 	rxBytes:histogram
field count 0
field mean 0
field stddev -nan
field sum 0
field sqrsum 0
field min 0
field max 0
attr interpolationmode  none
attr title  "received packet byte length, histogram"
attr unit  bytes
bin	-INF	0
bin	-0.5	0
bin	-0.46666666666667	0
bin	-0.43333333333333	0
bin	-0.4	0
bin	-0.36666666666667	0
bin	-0.33333333333333	0
bin	-0.3	0
bin	-0.26666666666667	0
bin	-0.23333333333333	0
bin	-0.2	0
bin	-0.16666666666667	0
bin	-0.13333333333333	0
bin	-0.1	0
bin	-0.066666666666667	0
bin	-0.033333333333333	0
bin	0	0
bin	0.033333333333333	0
bin	0.066666666666667	0
bin	0.1	0
bin	0.13333333333333	0
bin	0.16666666666667	0
bin	0.2	0
bin	0.23333333333333	0
bin	0.26666666666667	0
bin	0.3	0
bin	0.33333333333333	0
bin	0.36666666666667	0
bin	0.4	0
bin	0.43333333333333	0
bin	0.46666666666667	0
bin	0.5	0
scalar Net5.rte[2].queue[0] 	txBytes:count 	0
attr interpolationmode  none
attr title  "transmitting packet byte length, count"
attr unit  bytes
scalar Net5.rte[2].queue[0] 	txBytes:sum 	0
attr interpolationmode  none
attr title  "transmitting packet byte length, sum"
attr unit  bytes
statistic Net5.rte[2].queue[0] 	txBytes:histogram
field count 0
field mean 0
field stddev -nan
field sum 0
field sqrsum 0
field min 0
field max 0
attr interpolationmode  none
attr title  "transmitting packet byte length, histogram"
attr unit  bytes
bin	-INF	0
bin	-0.5	0
bin	-0.46666666666667	0
bin	-0.43333333333333	0
bin	-0.4	0
bin	-0.36666666666667	0
bin	-0.33333333333333	0
bin	-0.3	0
bin	-0.26666666666667	0
bin	-0.23333333333333	0
bin	-0.2	0
bin	-0.16666666666667	0
bin	-0.13333333333333	0
bin	-0.1	0
bin	-0.066666666666667	0
bin	-0.033333333333333	0
bin	0	0
bin	0.033333333333333	0
bin	0.066666666666667	0
bin	0.1	0
bin	0.13333333333333	0
bin	0.16666666666667	0
bin	0.2	0
bin	0.23333333333333	0
bin	0.26666666666667	0
bin	0.3	0
bin	0.33333333333333	0
bin	0.36666666666667	0
bin	0.4	0
bin	0.43333333333333	0
bin	0.46666666666667	0
bin	0.5	0
scalar Net5.rte[2].queue[0] 	busy:timeavg 	0
attr interpolationmode  sample-hold
attr title  "server busy state, timeavg"
scalar Net5.rte[2].queue[0] 	qlen:timeavg 	0
attr interpolationmode  sample-hold
attr title  "queue length, timeavg"
scalar Net5.rte[2].queue[0] 	qlen:max 	0
attr interpolationmode  sample-hold
attr title  "queue length, max"
scalar Net5.rte[2].queue[0] 	drop:count 	0
attr interpolationmode  none
attr title  "dropped packet byte length, count"
attr unit  bytes
scalar Net5.rte[2].queue[0] 	drop:sum 	0
attr interpolationmode  none
attr title  "dropped packet byte length, sum"
attr unit  bytes
scalar Net5.rte[2].queue[1] 	rxBytes:count 	0
attr interpolationmode  none
attr title  "received packet byte length, count"
attr unit  bytes
scalar Net5.rte[2].queue[1] 	rxBytes:sum 	0
attr interpolationmode  none
attr title  "received packet byte length, sum"
attr unit  bytes
statistic Net5.rte[2].queue[1] 	rxBytes:histogram
field count 0
field mean 0
field stddev -nan
field sum 0
field sqrsum 0
field min 0
field max 0
attr interpolationmode  none
attr title  "received packet byte length, histogram"
attr unit  bytes
bin	-INF	0
bin	-0.5	0
bin	-0.46666666666667	0
bin	-0.43333333333333	0
bin	-0.4	0
bin	-0.36666666666667	0
bin	-0.33333333333333	0
bin	-0.3	0
bin	-0.26666666666667	0
bin	-0.23333333333333	0
bin	-0.2	0
bin	-0.16666666666667	0
bin	-0.13333333333333	0
bin	-0.1	0
bin	-0.066666666666667	0
bin	-0.033333333333333	0
bin	0	0
bin	0.033333333333333	0
bin	0.066666666666667	0
bin	0.1	0
bin	0.13333333333333	0
bin	0.16666666666667	0
bin	0.2	0
bin	0.23333333333333	0
bin	0.26666666666667	0
bin	0.3	0
bin	0.33333333333333	0
bin	0.36666666666667	0
bin	0.4	0
bin	0.43333333333333	0
bin	0.46666666666667	0
bin	0.5	0
scalar Net5.rte[2].queue[1] 	txBytes:count 	4
attr interpolationmode  none
attr title  "transmitting packet byte length, count"
attr unit  bytes
scalar Net5.rte[2].queue[1] 	txBytes:sum 	4096
attr interpolationmode  none
attr title  "transmitting packet byte length, sum"
attr unit  bytes
statistic Net5.rte[2].queue[1] 	txBytes:histogram
field count 4
field mean 1024
field stddev 0
field sum 4096
field sqrsum 4194304
field min 1024
field max 1024
attr interpolationmode  none
attr title  "transmitting packet byte length, histogram"
attr unit  bytes
bin	-INF	0
bin	1023	0
bin	1024	4
bin	1025	0
scalar Net5.rte[2].queue[1] 	busy:timeavg 	0.60725285411901
attr interpolationmode  sample-hold
attr title  "server busy state, timeavg"
scalar Net5.rte[2].queue[1] 	qlen:timeavg 	0.15925522420035
attr interpolationmode  sample-hold
attr title  "queue length, timeavg"
scalar Net5.rte[2].queue[1] 	qlen:max 	1
attr interpolationmode  sample-hold
attr title  "queue length, max"
scalar Net5.rte[2].queue[1] 	drop:count 	0
attr interpolationmode  none
attr title  "dropped packet byte length, count"
attr unit  bytes
scalar Net5.rte[2].queue[1] 	drop:sum 	0
attr interpolationmode  none
attr title  "dropped packet byte length, sum"
attr unit  bytes
scalar Net5.rte[2].queue[2] 	rxBytes:count 	0
attr interpolationmode  none
attr title  "received packet byte length, count"
attr unit  bytes
scalar Net5.rte[2].queue[2] 	rxBytes:sum 	0
attr interpolationmode  none
attr title  "received packet byte length, sum"
attr unit  bytes
statistic Net5.rte[2].queue[2] 	rxBytes:histogram
field count 0
field mean 0
field stddev -nan
field sum 0
field sqrsum 0
field min 0
field max 0
attr interpolationmode  none
attr title  "received packet byte length, histogram"
attr unit  bytes
bin	-INF	0
bin	-0.5	0
bin	-0.46666666666667	0
bin	-0.43333333333333	0
bin	-0.4	0
bin	-0.36666666666667	0
bin	-0.33333333333333	0
bin	-0.3	0
bin	-0.26666666666667	0
bin	-0.23333333333333	0
bin	-0.2	0
bin	-0.16666666666667	0
bin	-0.13333333333333	0
bin	-0.1	0
bin	-0.066666666666667	0
bin	-0.033333333333333	0
bin	0	0
bin	0.033333333333333	0
bin	0.066666666666667	0
bin	0.1	0
bin	0.13333333333333	0
bin	0.16666666666667	0
bin	0.2	0
bin	0.23333333333333	0
bin	0.26666666666667	0
bin	0.3	0
bin	0.33333333333333	0
bin	0.36666666666667	0
bin	0.4	0
bin	0.43333333333333	0
bin	0.46666666666667	0
bin	0.5	0
scalar Net5.rte[2].queue[2] 	txBytes:count 	1
attr interpolationmode  none
attr title  "transmitting packet byte length, count"
attr unit  bytes
scalar Net5.rte[2].queue[2] 	txBytes:sum 	1024
attr interpolationmode  none
attr title  "transmitting packet byte length, sum"
attr unit  bytes
statistic Net5.rte[2].queue[2] 	txBytes:histogram
field count 1
field mean 1024
field stddev -nan
field sum 1024
field sqrsum 1048576
field min 1024
field max 1024
attr interpolationmode  none
attr title  "transmitting packet byte length, histogram"
attr unit  bytes
bin	-INF	0
bin	1023	0
bin	1024	1
bin	1025	0
scalar Net5.rte[2].queue[2] 	busy:timeavg 	0.16041790515469
attr interpolationmode  sample-hold
attr title  "server busy state, timeavg"
scalar Net5.rte[2].queue[2] 	qlen:timeavg 	0
attr interpolationmode  sample-hold
attr title  "queue length, timeavg"
scalar Net5.rte[2].queue[2] 	qlen:max 	0
attr interpolationmode  sample-hold
attr title  "queue length, max"
scalar Net5.rte[2].queue[2] 	drop:count 	0
attr interpolationmode  none
attr title  "dropped packet byte length, count"
attr unit  bytes
scalar Net5.rte[2].queue[2] 	drop:sum 	0
attr interpolationmode  none
attr title  "dropped packet byte length, sum"
attr unit  bytes
scalar Net5.rte[3].app 	hopCount:mean 	-nan
attr interpolationmode  none
attr title  "hop count of arrived packets, mean"
scalar Net5.rte[3].app 	hopCount:max 	-nan
attr interpolationmode  none
attr title  "hop count of arrived packets, max"
scalar Net5.rte[3].app 	endToEndDelay:mean 	-nan
attr interpolationmode  none
attr title  "end-to-end delay of arrived packets, mean"
attr unit  s
scalar Net5.rte[3].app 	endToEndDelay:max 	-nan
attr interpolationmode  none
attr title  "end-to-end delay of arrived packets, max"
attr unit  s
statistic Net5.rte[3].routing 	outputIf:histogram
field count 2
field mean 2
field stddev 0
field sum 4
field sqrsum 8
field min 2
field max 2
attr interpolationmode  none
attr title  "output interface for each routed packet, histogram"
bin	-INF	0
bin	1	0
bin	2	2
bin	3	0
scalar Net5.rte[3].routing 	drop:count 	0
attr interpolationmode  none
attr title  "dropped packet byte length, count"
attr unit  bytes
scalar Net5.rte[3].routing 	drop:sum 	0
attr interpolationmode  none
attr title  "dropped packet byte length, sum"
attr unit  bytes
scalar Net5.rte[3].queue[0] 	rxBytes:count 	1
attr interpolationmode  none
attr title  "received packet byte length, count"
attr unit  bytes
scalar Net5.rte[3].queue[0] 	rxBytes:sum 	1024
attr interpolationmode  none
attr title  "received packet byte length, sum"
attr unit  bytes
statistic Net5.rte[3].queue[0] 	rxBytes:histogram
field count 1
field mean 1024
field stddev -nan
field sum 1024
field sqrsum 1048576
field min 1024
field max 1024
attr interpolationmode  none
attr title  "received packet byte length, histogram"
attr unit  bytes
bin	-INF	0
bin	1023	0
bin	1024	1
bin	1025	0
scalar Net5.rte[3].queue[0] 	txBytes:count 	0
attr interpolationmode  none
attr title  "transmitting packet byte length, count"
attr unit  bytes
scalar Net5.rte[3].queue[0] 	txBytes:sum 	0
attr interpolationmode  none
attr title  "transmitting packet byte length, sum"
attr unit  bytes
statistic Net5.rte[3].queue[0] 	txBytes:histogram
field count 0
field mean 0
field stddev -nan
field sum 0
field sqrsum 0
field min 0
field max 0
attr interpolationmode  none
attr title  "transmitting packet byte length, histogram"
attr unit  bytes
bin	-INF	0
bin	-0.5	0
bin	-0.46666666666667	0
bin	-0.43333333333333	0
bin	-0.4	0
bin	-0.36666666666667	0
bin	-0.33333333333333	0
bin	-0.3	0
bin	-0.26666666666667	0
bin	-0.23333333333333	0
bin	-0.2	0
bin	-0.16666666666667	0
bin	-0.13333333333333	0
bin	-0.1	0
bin	-0.066666666666667	0
bin	-0.033333333333333	0
bin	0	0
bin	0.033333333333333	0
bin	0.066666666666667	0
bin	0.1	0
bin	0.13333333333333	0
bin	0.16666666666667	0
bin	0.2	0
bin	0.23333333333333	0
bin	0.26666666666667	0
bin	0.3	0
bin	0.33333333333333	0
bin	0.36666666666667	0
bin	0.4	0
bin	0.43333333333333	0
bin	0.46666666666667	0
bin	0.5	0
scalar Net5.rte[3].queue[0] 	busy:timeavg 	0
attr interpolationmode  sample-hold
attr title  "server busy state, timeavg"
scalar Net5.rte[3].queue[0] 	qlen:timeavg 	0
attr interpolationmode  sample-hold
attr title  "queue length, timeavg"
scalar Net5.rte[3].queue[0] 	qlen:max 	0
attr interpolationmode  sample-hold
attr title  "queue length, max"
scalar Net5.rte[3].queue[0] 	drop:count 	0
attr interpolationmode  none
attr title  "dropped packet byte length, count"
attr unit  bytes
scalar Net5.rte[3].queue[0] 	drop:sum 	0
attr interpolationmode  none
attr title  "dropped packet byte length, sum"
attr unit  bytes
scalar Net5.rte[3].queue[1] 	rxBytes:count 	1
attr interpolationmode  none
attr title  "received packet byte length, count"
attr unit  bytes
scalar Net5.rte[3].queue[1] 	rxBytes:sum 	1024
attr interpolationmode  none
attr title  "received packet byte length, sum"
attr unit  bytes
statistic Net5.rte[3].queue[1] 	rxBytes:histogram
field count 1
field mean 1024
field stddev -nan
field sum 1024
field sqrsum 1048576
field min 1024
field max 1024
attr interpolationmode  none
attr title  "received packet byte length, histogram"
attr unit  bytes
bin	-INF	0
bin	1023	0
bin	1024	1
bin	1025	0
scalar Net5.rte[3].queue[1] 	txBytes:count 	0
attr interpolationmode  none
attr title  "transmitting packet byte length, count"
attr unit  bytes
scalar Net5.rte[3].queue[1] 	txBytes:sum 	0
attr interpolationmode  none
attr title  "transmitting packet byte length, sum"
attr unit  bytes
statistic Net5.rte[3].queue[1] 	txBytes:histogram
field count 0
field mean 0
field stddev -nan
field sum 0
field sqrsum 0
field min 0
field max 0
attr interpolationmode  none
attr title  "transmitting packet byte length, histogram"
attr unit  bytes
bin	-INF	0
bin	-0.5	0
bin	-0.46666666666667	0
bin	-0.43333333333333	0
bin	-0.4	0
bin	-0.36666666666667	0
bin	-0.33333333333333	0
bin	-0.3	0
bin	-0.26666666666667	0
bin	-0.23333333333333	0
bin	-0.2	0
bin	-0.16666666666667	0
bin	-0.13333333333333	0
bin	-0.1	0
bin	-0.066666666666667	0
bin	-0.033333333333333	0
bin	0	0
bin	0.033333333333333	0
bin	0.066666666666667	0
bin	0.1	0
bin	0.13333333333333	0
bin	0.16666666666667	0
bin	0.2	0
bin	0.23333333333333	0
bin	0.26666666666667	0
bin	0.3	0
bin	0.33333333333333	0
bin	0.36666666666667	0
bin	0.4	0
bin	0.43333333333333	0
bin	0.46666666666667	0
bin	0.5	0
scalar Net5.rte[3].queue[1] 	busy:timeavg 	0
attr interpolationmode  sample-hold
attr title  "server busy state, timeavg"
scalar Net5.rte[3].queue[1] 	qlen:timeavg 	0
attr interpolationmode  sample-hold
attr title  "queue length, timeavg"
scalar Net5.rte[3].queue[1] 	qlen:max 	0
attr interpolationmode  sample-hold
attr title  "queue length, max"
scalar Net5.rte[3].queue[1] 	drop:count 	0
attr interpolationmode  none
attr title  "dropped packet byte length, count"
attr unit  bytes
scalar Net5.rte[3].queue[1] 	drop:sum 	0
attr interpolationmode  none
attr title  "dropped packet byte length, sum"
attr unit  bytes
scalar Net5.rte[3].queue[2] 	rxBytes:count 	0
attr interpolationmode  none
attr title  "received packet byte length, count"
attr unit  bytes
scalar Net5.rte[3].queue[2] 	rxBytes:sum 	0
attr interpolationmode  none
attr title  "received packet byte length, sum"
attr unit  bytes
statistic Net5.rte[3].queue[2] 	rxBytes:histogram
field count 0
field mean 0
field stddev -nan
field sum 0
field sqrsum 0
field min 0
field max 0
attr interpolationmode  none
attr title  "received packet byte length, histogram"
attr unit  bytes
bin	-INF	0
bin	-0.5	0
bin	-0.46666666666667	0
bin	-0.43333333333333	0
bin	-0.4	0
bin	-0.36666666666667	0
bin	-0.33333333333333	0
bin	-0.3	0
bin	-0.26666666666667	0
bin	-0.23333333333333	0
bin	-0.2	0
bin	-0.16666666666667	0
bin	-0.13333333333333	0
bin	-0.1	0
bin	-0.066666666666667	0
bin	-0.033333333333333	0
bin	0	0
bin	0.033333333333333	0
bin	0.066666666666667	0
bin	0.1	0
bin	0.13333333333333	0
bin	0.16666666666667	0
bin	0.2	0
bin	0.23333333333333	0
bin	0.26666666666667	0
bin	0.3	0
bin	0.33333333333333	0
bin	0.36666666666667	0
bin	0.4	0
bin	0.43333333333333	0
bin	0.46666666666667	0
bin	0.5	0
scalar Net5.rte[3].queue[2] 	txBytes:count 	2
attr interpolationmode  none
attr title  "transmitting packet byte length, count"
attr unit  bytes
scalar Net5.rte[3].queue[2] 	txBytes:sum 	2048
attr interpolationmode  none
attr title  "transmitting packet byte length, sum"
attr unit  bytes
statistic Net5.rte[3].queue[2] 	txBytes:histogram
field count 2
field mean 1024
field stddev 0
field sum 2048
field sqrsum 2097152
field min 1024
field max 1024
attr interpolationmode  none
attr title  "transmitting packet byte length, histogram"
attr unit  bytes
bin	-INF	0
bin	1023	0
bin	1024	2
bin	1025	0
scalar Net5.rte[3].queue[2] 	busy:timeavg 	0.30605228555731
attr interpolationmode  sample-hold
attr title  "server busy state, timeavg"
scalar Net5.rte[3].queue[2] 	qlen:timeavg 	0
attr interpolationmode  sample-hold
attr title  "queue length, timeavg"
scalar Net5.rte[3].queue[2] 	qlen:max 	0
attr interpolationmode  sample-hold
attr title  "queue length, max"
scalar Net5.rte[3].queue[2] 	drop:count 	0
attr interpolationmode  none
attr title  "dropped packet byte length, count"
attr unit  bytes
scalar Net5.rte[3].queue[2] 	drop:sum 	0
attr interpolationmode  none
attr title  "dropped packet byte length, sum"
attr unit  bytes
scalar Net5.rte[3].queue[3] 	rxBytes:count 	0
attr interpolationmode  none
attr title  "received packet byte length, count"
attr unit  bytes
scalar Net5.rte[3].queue[3] 	rxBytes:sum 	0
attr interpolationmode  none
attr title  "received packet byte length, sum"
attr unit  bytes
statistic Net5.rte[3].queue[3] 	rxBytes:histogram
field count 0
field mean 0
field stddev -nan
field sum 0
field sqrsum 0
field min 0
field max 0
attr interpolationmode  none
attr title  "received packet byte length, histogram"
attr unit  bytes
bin	-INF	0
bin	-0.5	0
bin	-0.46666666666667	0
bin	-0.43333333333333	0
bin	-0.4	0
bin	-0.36666666666667	0
bin	-0.33333333333333	0
bin	-0.3	0
bin	-0.26666666666667	0
bin	-0.23333333333333	0
bin	-0.2	0
bin	-0.16666666666667	0
bin	-0.13333333333333	0
bin	-0.1	0
bin	-0.066666666666667	0
bin	-0.033333333333333	0
bin	0	0
bin	0.033333333333333	0
bin	0.066666666666667	0
bin	0.1	0
bin	0.13333333333333	0
bin	0.16666666666667	0
bin	0.2	0
bin	0.23333333333333	0
bin	0.26666666666667	0
bin	0.3	0
bin	0.33333333333333	0
bin	0.36666666666667	0
bin	0.4	0
bin	0.43333333333333	0
bin	0.46666666666667	0
bin	0.5	0
scalar Net5.rte[3].queue[3] 	txBytes:count 	2
attr interpolationmode  none
attr title  "transmitting packet byte length, count"
attr unit  bytes
scalar Net5.rte[3].queue[3] 	txBytes:sum 	2048
attr interpolationmode  none
attr title  "transmitting packet byte length, sum"
attr unit  bytes
statistic Net5.rte[3].queue[3] 	txBytes:histogram
field count 2
field mean 1024
field stddev 0
field sum 2048
field sqrsum 2097152
field min 1024
field max 1024
attr interpolationmode  none
attr title  "transmitting packet byte length, histogram"
attr unit  bytes
bin	-INF	0
bin	1023	0
bin	1024	2
bin	1025	0
scalar Net5.rte[3].queue[3] 	busy:timeavg 	0.30605228555731
attr interpolationmode  sample-hold
attr title  "server busy state, timeavg"
scalar Net5.rte[3].queue[3] 	qlen:timeavg 	0
attr interpolationmode  sample-hold
attr title  "queue length, timeavg"
scalar Net5.rte[3].queue[3] 	qlen:max 	0
attr interpolationmode  sample-hold
attr title  "queue length, max"
scalar Net5.rte[3].queue[3] 	drop:count 	0
attr interpolationmode  none
attr title  "dropped packet byte length, count"
attr unit  bytes
scalar Net5.rte[3].queue[3] 	drop:sum 	0
attr interpolationmode  none
attr title  "dropped packet byte length, sum"
attr unit  bytes
scalar Net5.rte[3].queue[4] 	rxBytes:count 	0
attr interpolationmode  none
attr title  "received packet byte length, count"
attr unit  bytes
scalar Net5.rte[3].queue[4] 	rxBytes:sum 	0
attr interpolationmode  none
attr title  "received packet byte length, sum"
attr unit  bytes
statistic Net5.rte[3].queue[4] 	rxBytes:histogram
field count 0
field mean 0
field stddev -nan
field sum 0
field sqrsum 0
field min 0
field max 0
attr interpolationmode  none
attr title  "received packet byte length, histogram"
attr unit  bytes
bin	-INF	0
bin	-0.5	0
bin	-0.46666666666667	0
bin	-0.43333333333333	0
bin	-0.4	0
bin	-0.36666666666667	0
bin	-0.33333333333333	0
bin	-0.3	0
bin	-0.26666666666667	0
bin	-0.23333333333333	0
bin	-0.2	0
bin	-0.16666666666667	0
bin	-0.13333333333333	0
bin	-0.1	0
bin	-0.066666666666667	0
bin	-0.033333333333333	0
bin	0	0
bin	0.033333333333333	0
bin	0.066666666666667	0
bin	0.1	0
bin	0.13333333333333	0
bin	0.16666666666667	0
bin	0.2	0
bin	0.23333333333333	0
bin	0.26666666666667	0
bin	0.3	0
bin	0.33333333333333	0
bin	0.36666666666667	0
bin	0.4	0
bin	0.43333333333333	0
bin	0.46666666666667	0
bin	0.5	0
scalar Net5.rte[3].queue[4] 	txBytes:count 	2
attr interpolationmode  none
attr title  "transmitting packet byte length, count"
attr unit  bytes
scalar Net5.rte[3].queue[4] 	txBytes:sum 	2048
attr interpolationmode  none
attr title  "transmitting packet byte length, sum"
attr unit  bytes
statistic Net5.rte[3].queue[4] 	txBytes:histogram
field count 2
field mean 1024
field stddev 0
field sum 2048
field sqrsum 2097152
field min 1024
field max 1024
attr interpolationmode  none
attr title  "transmitting packet byte length, histogram"
attr unit  bytes
bin	-INF	0
bin	1023	0
bin	1024	2
bin	1025	0
scalar Net5.rte[3].queue[4] 	busy:timeavg 	0.30605228555731
attr interpolationmode  sample-hold
attr title  "server busy state, timeavg"
scalar Net5.rte[3].queue[4] 	qlen:timeavg 	0
attr interpolationmode  sample-hold
attr title  "queue length, timeavg"
scalar Net5.rte[3].queue[4] 	qlen:max 	0
attr interpolationmode  sample-hold
attr title  "queue length, max"
scalar Net5.rte[3].queue[4] 	drop:count 	0
attr interpolationmode  none
attr title  "dropped packet byte length, count"
attr unit  bytes
scalar Net5.rte[3].queue[4] 	drop:sum 	0
attr interpolationmode  none
attr title  "dropped packet byte length, sum"
attr unit  bytes
scalar Net5.rte[4].app 	hopCount:mean 	-nan
attr interpolationmode  none
attr title  "hop count of arrived packets, mean"
scalar Net5.rte[4].app 	hopCount:max 	-nan
attr interpolationmode  none
attr title  "hop count of arrived packets, max"
scalar Net5.rte[4].app 	endToEndDelay:mean 	-nan
attr interpolationmode  none
attr title  "end-to-end delay of arrived packets, mean"
attr unit  s
scalar Net5.rte[4].app 	endToEndDelay:max 	-nan
attr interpolationmode  none
attr title  "end-to-end delay of arrived packets, max"
attr unit  s
statistic Net5.rte[4].routing 	outputIf:histogram
field count 0
field mean 0
field stddev -nan
field sum 0
field sqrsum 0
field min 0
field max 0
attr interpolationmode  none
attr title  "output interface for each routed packet, histogram"
bin	-INF	0
bin	-0.5	0
bin	-0.46666666666667	0
bin	-0.43333333333333	0
bin	-0.4	0
bin	-0.36666666666667	0
bin	-0.33333333333333	0
bin	-0.3	0
bin	-0.26666666666667	0
bin	-0.23333333333333	0
bin	-0.2	0
bin	-0.16666666666667	0
bin	-0.13333333333333	0
bin	-0.1	0
bin	-0.066666666666667	0
bin	-0.033333333333333	0
bin	0	0
bin	0.033333333333333	0
bin	0.066666666666667	0
bin	0.1	0
bin	0.13333333333333	0
bin	0.16666666666667	0
bin	0.2	0
bin	0.23333333333333	0
bin	0.26666666666667	0
bin	0.3	0
bin	0.33333333333333	0
bin	0.36666666666667	0
bin	0.4	0
bin	0.43333333333333	0
bin	0.46666666666667	0
bin	0.5	0
scalar Net5.rte[4].routing 	drop:count 	0
attr interpolationmode  none
attr title  "dropped packet byte length, count"
attr unit  bytes
scalar Net5.rte[4].routing 	drop:sum 	0
attr interpolationmode  none
attr title  "dropped packet byte length, sum"
attr unit  bytes
scalar Net5.rte[4].queue[0] 	rxBytes:count 	1
attr interpolationmode  none
attr title  "received packet byte length, count"
attr unit  bytes
scalar Net5.rte[4].queue[0] 	rxBytes:sum 	1024
attr interpolationmode  none
attr title  "received packet byte length, sum"
attr unit  bytes
statistic Net5.rte[4].queue[0] 	rxBytes:histogram
field count 1
field mean 1024
field stddev -nan
field sum 1024
field sqrsum 1048576
field min 1024
field max 1024
attr interpolationmode  none
attr title  "received packet byte length, histogram"
attr unit  bytes
bin	-INF	0
bin	1023	0
bin	1024	1
bin	1025	0
scalar Net5.rte[4].queue[0] 	txBytes:count 	0
attr interpolationmode  none
attr title  "transmitting packet byte length, count"
attr unit  bytes
scalar Net5.rte[4].queue[0] 	txBytes:sum 	0
attr interpolationmode  none
attr title  "transmitting packet byte length, sum"
attr unit  bytes
statistic Net5.rte[4].queue[0] 	txBytes:histogram
field count 0
field mean 0
field stddev -nan
field sum 0
field sqrsum 0
field min 0
field max 0
attr interpolationmode  none
attr title  "transmitting packet byte length, histogram"
attr unit  bytes
bin	-INF	0
bin	-0.5	0
bin	-0.46666666666667	0
bin	-0.43333333333333	0
bin	-0.4	0
bin	-0.36666666666667	0
bin	-0.33333333333333	0
bin	-0.3	0
bin	-0.26666666666667	0
bin	-0.23333333333333	0
bin	-0.2	0
bin	-0.16666666666667	0
bin	-0.13333333333333	0
bin	-0.1	0
bin	-0.066666666666667	0
bin	-0.033333333333333	0
bin	0	0
bin	0.033333333333333	0
bin	0.066666666666667	0
bin	0.1	0
bin	0.13333333333333	0
bin	0.16666666666667	0
bin	0.2	0
bin	0.23333333333333	0
bin	0.26666666666667	0
bin	0.3	0
bin	0.33333333333333	0
bin	0.36666666666667	0
bin	0.4	0
bin	0.43333333333333	0
bin	0.46666666666667	0
bin	0.5	0
scalar Net5.rte[4].queue[0] 	busy:timeavg 	0
attr interpolationmode  sample-hold
attr title  "server busy state, timeavg"
scalar Net5.rte[4].queue[0] 	qlen:timeavg 	0
attr interpolationmode  sample-hold
attr title  "queue length, timeavg"
scalar Net5.rte[4].queue[0] 	qlen:max 	0
attr interpolationmode  sample-hold
attr title  "queue length, max"
scalar Net5.rte[4].queue[0] 	drop:count 	0
attr interpolationmode  none
attr title  "dropped packet byte length, count"
attr unit  bytes
scalar Net5.rte[4].queue[0] 	drop:sum 	0
attr interpolationmode  none
attr title  "dropped packet byte length, sum"
attr unit  bytes
scalar Net5.rte[4].queue[1] 	rxBytes:count 	1
attr interpolationmode  none
attr title  "received packet byte length, count"
attr unit  bytes
scalar Net5.rte[4].queue[1] 	rxBytes:sum 	1024
attr interpolationmode  none
attr title  "received packet byte length, sum"
attr unit  bytes
statistic Net5.rte[4].queue[1] 	rxBytes:histogram
field count 1
field mean 1024
field stddev -nan
field sum 1024
field sqrsum 1048576
field min 1024
field max 1024
attr interpolationmode  none
attr title  "received packet byte length, histogram"
attr unit  bytes
bin	-INF	0
bin	1023	0
bin	1024	1
bin	1025	0
scalar Net5.rte[4].queue[1] 	txBytes:count 	0
attr interpolationmode  none
attr title  "transmitting packet byte length, count"
attr unit  bytes
scalar Net5.rte[4].queue[1] 	txBytes:sum 	0
attr interpolationmode  none
attr title  "transmitting packet byte length, sum"
attr unit  bytes
statistic Net5.rte[4].queue[1] 	txBytes:histogram
field count 0
field mean 0
field stddev -nan
field sum 0
field sqrsum 0
field min 0
field max 0
attr interpolationmode  none
attr title  "transmitting packet byte length, histogram"
attr unit  bytes
bin	-INF	0
bin	-0.5	0
bin	-0.46666666666667	0
bin	-0.43333333333333	0
bin	-0.4	0
bin	-0.36666666666667	0
bin	-0.33333333333333	0
bin	-0.3	0
bin	-0.26666666666667	0
bin	-0.23333333333333	0
bin	-0.2	0
bin	-0.16666666666667	0
bin	-0.13333333333333	0
bin	-0.1	0
bin	-0.066666666666667	0
bin	-0.033333333333333	0
bin	0	0
bin	0.033333333333333	0
bin	0.066666666666667	0
bin	0.1	0
bin	0.13333333333333	0
bin	0.16666666666667	0
bin	0.2	0
bin	0.23333333333333	0
bin	0.26666666666667	0
bin	0.3	0
bin	0.33333333333333	0
bin	0.36666666666667	0
bin	0.4	0
bin	0.43333333333333	0
bin	0.46666666666667	0
bin	0.5	0
scalar Net5.rte[4].queue[1] 	busy:timeavg 	0
attr interpolationmode  sample-hold
attr title  "server busy state, timeavg"
scalar Net5.rte[4].queue[1] 	qlen:timeavg 	0
attr interpolationmode  sample-hold
attr title  "queue length, timeavg"
scalar Net5.rte[4].queue[1] 	qlen:max 	0
attr interpolationmode  sample-hold
attr title  "queue length, max"
scalar Net5.rte[4].queue[1] 	drop:count 	0
attr interpolationmode  none
attr title  "dropped packet byte length, count"
attr unit  bytes
scalar Net5.rte[4].queue[1] 	drop:sum 	0
attr interpolationmode  none
attr title  "dropped packet byte length, sum"
attr unit  bytes
scalar Net5.rte[5].app 	hopCount:mean 	-nan
attr interpolationmode  none
attr title  "hop count of arrived packets, mean"
scalar Net5.rte[5].app 	hopCount:max 	-nan
attr interpolationmode  none
attr title  "hop count of arrived packets, max"
scalar Net5.rte[5].app 	endToEndDelay:mean 	-nan
attr interpolationmode  none
attr title  "end-to-end delay of arrived packets, mean"
attr unit  s
scalar Net5.rte[5].app 	endToEndDelay:max 	-nan
attr interpolationmode  none
attr title  "end-to-end delay of arrived packets, max"
attr unit  s
statistic Net5.rte[5].routing 	outputIf:histogram
field count 0
field mean 0
field stddev -nan
field sum 0
field sqrsum 0
field min 0
field max 0
attr interpolationmode  none
attr title  "output interface for each routed packet, histogram"
bin	-INF	0
bin	-0.5	0
bin	-0.46666666666667	0
bin	-0.43333333333333	0
bin	-0.4	0
bin	-0.36666666666667	0
bin	-0.33333333333333	0
bin	-0.3	0
bin	-0.26666666666667	0
bin	-0.23333333333333	0
bin	-0.2	0
bin	-0.16666666666667	0
bin	-0.13333333333333	0
bin	-0.1	0
bin	-0.066666666666667	0
bin	-0.033333333333333	0
bin	0	0
bin	0.033333333333333	0
bin	0.066666666666667	0
bin	0.1	0
bin	0.13333333333333	0
bin	0.16666666666667	0
bin	0.2	0
bin	0.23333333333333	0
bin	0.26666666666667	0
bin	0.3	0
bin	0.33333333333333	0
bin	0.36666666666667	0
bin	0.4	0
bin	0.43333333333333	0
bin	0.46666666666667	0
bin	0.5	0
scalar Net5.rte[5].routing 	drop:count 	0
attr interpolationmode  none
attr title  "dropped packet byte length, count"
attr unit  bytes
scalar Net5.rte[5].routing 	drop:sum 	0
attr interpolationmode  none
attr title  "dropped packet byte length, sum"
attr unit  bytes
scalar Net5.rte[5].queue[0] 	rxBytes:count 	1
attr interpolationmode  none
attr title  "received packet byte length, count"
attr unit  bytes
scalar Net5.rte[5].queue[0] 	rxBytes:sum 	1024
attr interpolationmode  none
attr title  "received packet byte length, sum"
attr unit  bytes
statistic Net5.rte[5].queue[0] 	rxBytes:histogram
field count 1
field mean 1024
field stddev -nan
field sum 1024
field sqrsum 1048576
field min 1024
field max 1024
attr interpolationmode  none
attr title  "received packet byte length, histogram"
attr unit  bytes
bin	-INF	0
bin	1023	0
bin	1024	1
bin	1025	0
scalar Net5.rte[5].queue[0] 	txBytes:count 	0
attr interpolationmode  none
attr title  "transmitting packet byte length, count"
attr unit  bytes
scalar Net5.rte[5].queue[0] 	txBytes:sum 	0
attr interpolationmode  none
attr title  "transmitting packet byte length, sum"
attr unit  bytes
statistic Net5.rte[5].queue[0] 	txBytes:histogram
field count 0
field mean 0
field stddev -nan
field sum 0
field sqrsum 0
field min 0
field max 0
attr interpolationmode  none
attr title  "transmitting packet byte length, histogram"
attr unit  bytes
bin	-INF	0
bin	-0.5	0
bin	-0.46666666666667	0
bin	-0.43333333333333	0
bin	-0.4	0
bin	-0.36666666666667	0
bin	-0.33333333333333	0
bin	-0.3	0
bin	-0.26666666666667	0
bin	-0.23333333333333	0
bin	-0.2	0
bin	-0.16666666666667	0
bin	-0.13333333333333	0
bin	-0.1	0
bin	-0.066666666666667	0
bin	-0.033333333333333	0
bin	0	0
bin	0.033333333333333	0
bin	0.066666666666667	0
bin	0.1	0
bin	0.13333333333333	0
bin	0.16666666666667	0
bin	0.2	0
bin	0.23333333333333	0
bin	0.26666666666667	0
bin	0.3	0
bin	0.33333333333333	0
bin	0.36666666666667	0
bin	0.4	0
bin	0.43333333333333	0
bin	0.46666666666667	0
bin	0.5	0
scalar Net5.rte[5].queue[0] 	busy:timeavg 	0
attr interpolationmode  sample-hold
attr title  "server busy state, timeavg"
scalar Net5.rte[5].queue[0] 	qlen:timeavg 	0
attr interpolationmode  sample-hold
attr title  "queue length, timeavg"
scalar Net5.rte[5].queue[0] 	qlen:max 	0
attr interpolationmode  sample-hold
attr title  "queue length, max"
scalar Net5.rte[5].queue[0] 	drop:count 	0
attr interpolationmode  none
attr title  "dropped packet byte length, count"
attr unit  bytes
scalar Net5.rte[5].queue[0] 	drop:sum 	0
attr interpolationmode  none
attr title  "dropped packet byte length, sum"
attr unit  bytes
scalar Net5.rte[5].queue[1] 	rxBytes:count 	1
attr interpolationmode  none
attr title  "received packet byte length, count"
attr unit  bytes
scalar Net5.rte[5].queue[1] 	rxBytes:sum 	1024
attr interpolationmode  none
attr title  "received packet byte length, sum"
attr unit  bytes
statistic Net5.rte[5].queue[1] 	rxBytes:histogram
field count 1
field mean 1024
field stddev -nan
field sum 1024
field sqrsum 1048576
field min 1024
field max 1024
attr interpolationmode  none
attr title  "received packet byte length, histogram"
attr unit  bytes
bin	-INF	0
bin	1023	0
bin	1024	1
bin	1025	0
scalar Net5.rte[5].queue[1] 	txBytes:count 	0
attr interpolationmode  none
attr title  "transmitting packet byte length, count"
attr unit  bytes
scalar Net5.rte[5].queue[1] 	txBytes:sum 	0
attr interpolationmode  none
attr title  "transmitting packet byte length, sum"
attr unit  bytes
statistic Net5.rte[5].queue[1] 	txBytes:histogram
field count 0
field mean 0
field stddev -nan
field sum 0
field sqrsum 0
field min 0
field max 0
attr interpolationmode  none
attr title  "transmitting packet byte length, histogram"
attr unit  bytes
bin	-INF	0
bin	-0.5	0
bin	-0.46666666666667	0
bin	-0.43333333333333	0
bin	-0.4	0
bin	-0.36666666666667	0
bin	-0.33333333333333	0
bin	-0.3	0
bin	-0.26666666666667	0
bin	-0.23333333333333	0
bin	-0.2	0
bin	-0.16666666666667	0
bin	-0.13333333333333	0
bin	-0.1	0
bin	-0.066666666666667	0
bin	-0.033333333333333	0
bin	0	0
bin	0.033333333333333	0
bin	0.066666666666667	0
bin	0.1	0
bin	0.13333333333333	0
bin	0.16666666666667	0
bin	0.2	0
bin	0.23333333333333	0
bin	0.26666666666667	0
bin	0.3	0
bin	0.33333333333333	0
bin	0.36666666666667	0
bin	0.4	0
bin	0.43333333333333	0
bin	0.46666666666667	0
bin	0.5	0
scalar Net5.rte[5].queue[1] 	busy:timeavg 	0
attr interpolationmode  sample-hold
attr title  "server busy state, timeavg"
scalar Net5.rte[5].queue[1] 	qlen:timeavg 	0
attr interpolationmode  sample-hold
attr title  "queue length, timeavg"
scalar Net5.rte[5].queue[1] 	qlen:max 	0
attr interpolationmode  sample-hold
attr title  "queue length, max"
scalar Net5.rte[5].queue[1] 	drop:count 	0
attr interpolationmode  none
attr title  "dropped packet byte length, count"
attr unit  bytes
scalar Net5.rte[5].queue[1] 	drop:sum 	0
attr interpolationmode  none
attr title  "dropped packet byte length, sum"
attr unit  bytes
scalar Net5.rte[6].app 	hopCount:mean 	-nan
attr interpolationmode  none
attr title  "hop count of arrived packets, mean"
scalar Net5.rte[6].app 	hopCount:max 	-nan
attr interpolationmode  none
attr title  "hop count of arrived packets, max"
scalar Net5.rte[6].app 	endToEndDelay:mean 	-nan
attr interpolationmode  none
attr title  "end-to-end delay of arrived packets, mean"
attr unit  s
scalar Net5.rte[6].app 	endToEndDelay:max 	-nan
attr interpolationmode  none
attr title  "end-to-end delay of arrived packets, max"
attr unit  s
statistic Net5.rte[6].routing 	outputIf:histogram
field count 0
field mean 0
field stddev -nan
field sum 0
field sqrsum 0
field min 0
field max 0
attr interpolationmode  none
attr title  "output interface for each routed packet, histogram"
bin	-INF	0
bin	-0.5	0
bin	-0.46666666666667	0
bin	-0.43333333333333	0
bin	-0.4	0
bin	-0.36666666666667	0
bin	-0.33333333333333	0
bin	-0.3	0
bin	-0.26666666666667	0
bin	-0.23333333333333	0
bin	-0.2	0
bin	-0.16666666666667	0
bin	-0.13333333333333	0
bin	-0.1	0
bin	-0.066666666666667	0
bin	-0.033333333333333	0
bin	0	0
bin	0.033333333333333	0
bin	0.066666666666667	0
bin	0.1	0
bin	0.13333333333333	0
bin	0.16666666666667	0
bin	0.2	0
bin	0.23333333333333	0
bin	0.26666666666667	0
bin	0.3	0
bin	0.33333333333333	0
bin	0.36666666666667	0
bin	0.4	0
bin	0.43333333333333	0
bin	0.46666666666667	0
bin	0.5	0
scalar Net5.rte[6].routing 	drop:count 	0
attr interpolationmode  none
attr title  "dropped packet byte length, count"
attr unit  bytes
scalar Net5.rte[6].routing 	drop:sum 	0
attr interpolationmode  none
attr title  "dropped packet byte length, sum"
attr unit  bytes
scalar Net5.rte[6].queue[0] 	rxBytes:count 	1
attr interpolationmode  none
attr title  "received packet byte length, count"
attr unit  bytes
scalar Net5.rte[6].queue[0] 	rxBytes:sum 	1024
attr interpolationmode  none
attr title  "received packet byte length, sum"
attr unit  bytes
statistic Net5.rte[6].queue[0] 	rxBytes:histogram
field count 1
field mean 1024
field stddev -nan
field sum 1024
field sqrsum 1048576
field min 1024
field max 1024
attr interpolationmode  none
attr title  "received packet byte length, histogram"
attr unit  bytes
bin	-INF	0
bin	1023	0
bin	1024	1
bin	1025	0
scalar Net5.rte[6].queue[0] 	txBytes:count 	0
attr interpolationmode  none
attr title  "transmitting packet byte length, count"
attr unit  bytes
scalar Net5.rte[6].queue[0] 	txBytes:sum 	0
attr interpolationmode  none
attr title  "transmitting packet byte length, sum"
attr unit  bytes
statistic Net5.rte[6].queue[0] 	txBytes:histogram
field count 0
field mean 0
field stddev -nan
field sum 0
field sqrsum 0
field min 0
field max 0
attr interpolationmode  none
attr title  "transmitting packet byte length, histogram"
attr unit  bytes
bin	-INF	0
bin	-0.5	0
bin	-0.46666666666667	0
bin	-0.43333333333333	0
bin	-0.4	0
bin	-0.36666666666667	0
bin	-0.33333333333333	0
bin	-0.3	0
bin	-0.26666666666667	0
bin	-0.23333333333333	0
bin	-0.2	0
bin	-0.16666666666667	0
bin	-0.13333333333333	0
bin	-0.1	0
bin	-0.066666666666667	0
bin	-0.033333333333333	0
bin	0	0
bin	0.033333333333333	0
bin	0.066666666666667	0
bin	0.1	0
bin	0.13333333333333	0
bin	0.16666666666667	0
bin	0.2	0
bin	0.23333333333333	0
bin	0.26666666666667	0
bin	0.3	0
bin	0.33333333333333	0
bin	0.36666666666667	0
bin	0.4	0
bin	0.43333333333333	0
bin	0.46666666666667	0
bin	0.5	0
scalar Net5.rte[6].queue[0] 	busy:timeavg 	0
attr interpolationmode  sample-hold
attr title  "server busy state, timeavg"
scalar Net5.rte[6].queue[0] 	qlen:timeavg 	0
attr interpolationmode  sample-hold
attr title  "queue length, timeavg"
scalar Net5.rte[6].queue[0] 	qlen:max 	0
attr interpolationmode  sample-hold
attr title  "queue length, max"
scalar Net5.rte[6].queue[0] 	drop:count 	0
attr interpolationmode  none
attr title  "dropped packet byte length, count"
attr unit  bytes
scalar Net5.rte[6].queue[0] 	drop:sum 	0
attr interpolationmode  none
attr title  "dropped packet byte length, sum"
attr unit  bytes
scalar Net5.rte[6].queue[1] 	rxBytes:count 	1
attr interpolationmode  none
attr title  "received packet byte length, count"
attr unit  bytes
scalar Net5.rte[6].queue[1] 	rxBytes:sum 	1024
attr interpolationmode  none
attr title  "received packet byte length, sum"
attr unit  bytes
statistic Net5.rte[6].queue[1] 	rxBytes:histogram
field count 1
field mean 1024
field stddev -nan
field sum 1024
field sqrsum 1048576
field min 1024
field max 1024
attr interpolationmode  none
attr title  "received packet byte length, histogram"
attr unit  bytes
bin	-INF	0
bin	1023	0
bin	1024	1
bin	1025	0
scalar Net5.rte[6].queue[1] 	txBytes:count 	0
attr interpolationmode  none
attr title  "transmitting packet byte length, count"
attr unit  bytes
scalar Net5.rte[6].queue[1] 	txBytes:sum 	0
attr interpolationmode  none
attr title  "transmitting packet byte length, sum"
attr unit  bytes
statistic Net5.rte[6].queue[1] 	txBytes:histogram
field count 0
field mean 0
field stddev -nan
field sum 0
field sqrsum 0
field min 0
field max 0
attr interpolationmode  none
attr title  "transmitting packet byte length, histogram"
attr unit  bytes
bin	-INF	0
bin	-0.5	0
bin	-0.46666666666667	0
bin	-0.43333333333333	0
bin	-0.4	0
bin	-0.36666666666667	0
bin	-0.33333333333333	0
bin	-0.3	0
bin	-0.26666666666667	0
bin	-0.23333333333333	0
bin	-0.2	0
bin	-0.16666666666667	0
bin	-0.13333333333333	0
bin	-0.1	0
bin	-0.066666666666667	0
bin	-0.033333333333333	0
bin	0	0
bin	0.033333333333333	0
bin	0.066666666666667	0
bin	0.1	0
bin	0.13333333333333	0
bin	0.16666666666667	0
bin	0.2	0
bin	0.23333333333333	0
bin	0.26666666666667	0
bin	0.3	0
bin	0.33333333333333	0
bin	0.36666666666667	0
bin	0.4	0
bin	0.43333333333333	0
bin	0.46666666666667	0
bin	0.5	0
scalar Net5.rte[6].queue[1] 	busy:timeavg 	0
attr interpolationmode  sample-hold
attr title  "server busy state, timeavg"
scalar Net5.rte[6].queue[1] 	qlen:timeavg 	0
attr interpolationmode  sample-hold
attr title  "queue length, timeavg"
scalar Net5.rte[6].queue[1] 	qlen:max 	0
attr interpolationmode  sample-hold
attr title  "queue length, max"
scalar Net5.rte[6].queue[1] 	drop:count 	0
attr interpolationmode  none
attr title  "dropped packet byte length, count"
attr unit  bytes
scalar Net5.rte[6].queue[1] 	drop:sum 	0
attr interpolationmode  none
attr title  "dropped packet byte length, sum"
attr unit  bytes
scalar Net5.rte[7].app 	hopCount:mean 	-nan
attr interpolationmode  none
attr title  "hop count of arrived packets, mean"
scalar Net5.rte[7].app 	hopCount:max 	-nan
attr interpolationmode  none
attr title  "hop count of arrived packets, max"
scalar Net5.rte[7].app 	endToEndDelay:mean 	-nan
attr interpolationmode  none
attr title  "end-to-end delay of arrived packets, mean"
attr unit  s
scalar Net5.rte[7].app 	endToEndDelay:max 	-nan
attr interpolationmode  none
attr title  "end-to-end delay of arrived packets, max"
attr unit  s
statistic Net5.rte[7].routing 	outputIf:histogram
field count 2
field mean 0
field stddev 0
field sum 0
field sqrsum 0
field min 0
field max 0
attr interpolationmode  none
attr title  "output interface for each routed packet, histogram"
bin	-INF	0
bin	-0.5	0
bin	-0.46666666666667	0
bin	-0.43333333333333	0
bin	-0.4	0
bin	-0.36666666666667	0
bin	-0.33333333333333	0
bin	-0.3	0
bin	-0.26666666666667	0
bin	-0.23333333333333	0
bin	-0.2	0
bin	-0.16666666666667	0
bin	-0.13333333333333	0
bin	-0.1	0
bin	-0.066666666666667	0
bin	-0.033333333333333	0
bin	0	2
bin	0.033333333333333	0
bin	0.066666666666667	0
bin	0.1	0
bin	0.13333333333333	0
bin	0.16666666666667	0
bin	0.2	0
bin	0.23333333333333	0
bin	0.26666666666667	0
bin	0.3	0
bin	0.33333333333333	0
bin	0.36666666666667	0
bin	0.4	0
bin	0.43333333333333	0
bin	0.46666666666667	0
bin	0.5	0
scalar Net5.rte[7].routing 	drop:count 	0
attr interpolationmode  none
attr title  "dropped packet byte length, count"
attr unit  bytes
scalar Net5.rte[7].routing 	drop:sum 	0
attr interpolationmode  none
attr title  "dropped packet byte length, sum"
attr unit  bytes
scalar Net5.rte[7].queue[0] 	rxBytes:count 	0
attr interpolationmode  none
attr title  "received packet byte length, count"
attr unit  bytes
scalar Net5.rte[7].queue[0] 	rxBytes:sum 	0
attr interpolationmode  none
attr title  "received packet byte length, sum"
attr unit  bytes
statistic Net5.rte[7].queue[0] 	rxBytes:histogram
field count 0
field mean 0
field stddev -nan
field sum 0
field sqrsum 0
field min 0
field max 0
attr interpolationmode  none
attr title  "received packet byte length, histogram"
attr unit  bytes
bin	-INF	0
bin	-0.5	0
bin	-0.46666666666667	0
bin	-0.43333333333333	0
bin	-0.4	0
bin	-0.36666666666667	0
bin	-0.33333333333333	0
bin	-0.3	0
bin	-0.26666666666667	0
bin	-0.23333333333333	0
bin	-0.2	0
bin	-0.16666666666667	0
bin	-0.13333333333333	0
bin	-0.1	0
bin	-0.066666666666667	0
bin	-0.033333333333333	0
bin	0	0
bin	0.033333333333333	0
bin	0.066666666666667	0
bin	0.1	0
bin	0.13333333333333	0
bin	0.16666666666667	0
bin	0.2	0
bin	0.23333333333333	0
bin	0.26666666666667	0
bin	0.3	0
bin	0.33333333333333	0
bin	0.36666666666667	0
bin	0.4	0
bin	0.43333333333333	0
bin	0.46666666666667	0
bin	0.5	0
scalar Net5.rte[7].queue[0] 	txBytes:count 	2
attr interpolationmode  none
attr title  "transmitting packet byte length, count"
attr unit  bytes
scalar Net5.rte[7].queue[0] 	txBytes:sum 	2048
attr interpolationmode  none
attr title  "transmitting packet byte length, sum"
attr unit  bytes
statistic Net5.rte[7].queue[0] 	txBytes:histogram
field count 2
field mean 1024
field stddev 0
field sum 2048
field sqrsum 2097152
field min 1024
field max 1024
attr interpolationmode  none
attr title  "transmitting packet byte length, histogram"
attr unit  bytes
bin	-INF	0
bin	1023	0
bin	1024	2
bin	1025	0
scalar Net5.rte[7].queue[0] 	busy:timeavg 	0.16041790515469
attr interpolationmode  sample-hold
attr title  "server busy state, timeavg"
scalar Net5.rte[7].queue[0] 	qlen:timeavg 	0
attr interpolationmode  sample-hold
attr title  "queue length, timeavg"
scalar Net5.rte[7].queue[0] 	qlen:max 	0
attr interpolationmode  sample-hold
attr title  "queue length, max"
scalar Net5.rte[7].queue[0] 	drop:count 	0
attr interpolationmode  none
attr title  "dropped packet byte length, count"
attr unit  bytes
scalar Net5.rte[7].queue[0] 	drop:sum 	0
attr interpolationmode  none
attr title  "dropped packet byte length, sum"
attr unit  bytes
scalar Net5.rte[7].queue[1] 	rxBytes:count 	0
attr interpolationmode  none
attr title  "received packet byte length, count"
attr unit  bytes
scalar Net5.rte[7].queue[1] 	rxBytes:sum 	0
attr interpolationmode  none
attr title  "received packet byte length, sum"
attr unit  bytes
statistic Net5.rte[7].queue[1] 	rxBytes:histogram
field count 0
field mean 0
field stddev -nan
field sum 0
field sqrsum 0
field min 0
field max 0
attr interpolationmode  none
attr title  "received packet byte length, histogram"
attr unit  bytes
bin	-INF	0
bin	-0.5	0
bin	-0.46666666666667	0
bin	-0.43333333333333	0
bin	-0.4	0
bin	-0.36666666666667	0
bin	-0.33333333333333	0
bin	-0.3	0
bin	-0.26666666666667	0
bin	-0.23333333333333	0
bin	-0.2	0
bin	-0.16666666666667	0
bin	-0.13333333333333	0
bin	-0.1	0
bin	-0.066666666666667	0
bin	-0.033333333333333	0
bin	0	0
bin	0.033333333333333	0
bin	0.066666666666667	0
bin	0.1	0
bin	0.13333333333333	0
bin	0.16666666666667	0
bin	0.2	0
bin	0.23333333333333	0
bin	0.26666666666667	0
bin	0.3	0
bin	0.33333333333333	0
bin	0.36666666666667	0
bin	0.4	0
bin	0.43333333333333	0
bin	0.46666666666667	0
bin	0.5	0
scalar Net5.rte[7].queue[1] 	txBytes:count 	2
attr interpolationmode  none
attr title  "transmitting packet byte length, count"
attr unit  bytes
scalar Net5.rte[7].queue[1] 	txBytes:sum 	2048
attr interpolationmode  none
attr title  "transmitting packet byte length, sum"
attr unit  bytes
statistic Net5.rte[7].queue[1] 	txBytes:histogram
field count 2
field mean 1024
field stddev 0
field sum 2048
field sqrsum 2097152
field min 1024
field max 1024
attr interpolationmode  none
attr title  "transmitting packet byte length, histogram"
attr unit  bytes
bin	-INF	0
bin	1023	0
bin	1024	2
bin	1025	0
scalar Net5.rte[7].queue[1] 	busy:timeavg 	0.16041790515469
attr interpolationmode  sample-hold
attr title  "server busy state, timeavg"
scalar Net5.rte[7].queue[1] 	qlen:timeavg 	0
attr interpolationmode  sample-hold
attr title  "queue length, timeavg"
scalar Net5.rte[7].queue[1] 	qlen:max 	0
attr interpolationmode  sample-hold
attr title  "queue length, max"
scalar Net5.rte[7].queue[1] 	drop:count 	0
attr interpolationmode  none
attr title  "dropped packet byte length, count"
attr unit  bytes
scalar Net5.rte[7].queue[1] 	drop:sum 	0
attr interpolationmode  none
attr title  "dropped packet byte length, sum"
attr unit  bytes
scalar Net5.rte[7].queue[2] 	rxBytes:count 	0
attr interpolationmode  none
attr title  "received packet byte length, count"
attr unit  bytes
scalar Net5.rte[7].queue[2] 	rxBytes:sum 	0
attr interpolationmode  none
attr title  "received packet byte length, sum"
attr unit  bytes
statistic Net5.rte[7].queue[2] 	rxBytes:histogram
field count 0
field mean 0
field stddev -nan
field sum 0
field sqrsum 0
field min 0
field max 0
attr interpolationmode  none
attr title  "received packet byte length, histogram"
attr unit  bytes
bin	-INF	0
bin	-0.5	0
bin	-0.46666666666667	0
bin	-0.43333333333333	0
bin	-0.4	0
bin	-0.36666666666667	0
bin	-0.33333333333333	0
bin	-0.3	0
bin	-0.26666666666667	0
bin	-0.23333333333333	0
bin	-0.2	0
bin	-0.16666666666667	0
bin	-0.13333333333333	0
bin	-0.1	0
bin	-0.066666666666667	0
bin	-0.033333333333333	0
bin	0	0
bin	0.033333333333333	0
bin	0.066666666666667	0
bin	0.1	0
bin	0.13333333333333	0
bin	0.16666666666667	0
bin	0.2	0
bin	0.23333333333333	0
bin	0.26666666666667	0
bin	0.3	0
bin	0.33333333333333	0
bin	0.36666666666667	0
bin	0.4	0
bin	0.43333333333333	0
bin	0.46666666666667	0
bin	0.5	0
scalar Net5.rte[7].queue[2] 	txBytes:count 	1
attr interpolationmode  none
attr title  "transmitting packet byte length, count"
attr unit  bytes
scalar Net5.rte[7].queue[2] 	txBytes:sum 	1024
attr interpolationmode  none
attr title  "transmitting packet byte length, sum"
attr unit  bytes
statistic Net5.rte[7].queue[2] 	txBytes:histogram
field count 1
field mean 1024
field stddev -nan
field sum 1024
field sqrsum 1048576
field min 1024
field max 1024
attr interpolationmode  none
attr title  "transmitting packet byte length, histogram"
attr unit  bytes
bin	-INF	0
bin	1023	0
bin	1024	1
bin	1025	0
scalar Net5.rte[7].queue[2] 	busy:timeavg 	0.16041790515469
attr interpolationmode  sample-hold
attr title  "server busy state, timeavg"
scalar Net5.rte[7].queue[2] 	qlen:timeavg 	0
attr interpolationmode  sample-hold
attr title  "queue length, timeavg"
scalar Net5.rte[7].queue[2] 	qlen:max 	0
attr interpolationmode  sample-hold
attr title  "queue length, max"
scalar Net5.rte[7].queue[2] 	drop:count 	0
attr interpolationmode  none
attr title  "dropped packet byte length, count"
attr unit  bytes
scalar Net5.rte[7].queue[2] 	drop:sum 	0
attr interpolationmode  none
attr title  "dropped packet byte length, sum"
attr unit  bytes
scalar Net5.rte[7].queue[3] 	rxBytes:count 	2
attr interpolationmode  none
attr title  "received packet byte length, count"
attr unit  bytes
scalar Net5.rte[7].queue[3] 	rxBytes:sum 	2048
attr interpolationmode  none
attr title  "received packet byte length, sum"
attr unit  bytes
statistic Net5.rte[7].queue[3] 	rxBytes:histogram
field count 2
field mean 1024
field stddev 0
field sum 2048
field sqrsum 2097152
field min 1024
field max 1024
attr interpolationmode  none
attr title  "received packet byte length, histogram"
attr unit  bytes
bin	-INF	0
bin	1023	0
bin	1024	2
bin	1025	0
scalar Net5.rte[7].queue[3] 	txBytes:count 	0
attr interpolationmode  none
attr title  "transmitting packet byte length, count"
attr unit  bytes
scalar Net5.rte[7].queue[3] 	txBytes:sum 	0
attr interpolationmode  none
attr title  "transmitting packet byte length, sum"
attr unit  bytes
statistic Net5.rte[7].queue[3] 	txBytes:histogram
field count 0
field mean 0
field stddev -nan
field sum 0
field sqrsum 0
field min 0
field max 0
attr interpolationmode  none
attr title  "transmitting packet byte length, histogram"
attr unit  bytes
bin	-INF	0
bin	-0.5	0
bin	-0.46666666666667	0
bin	-0.43333333333333	0
bin	-0.4	0
bin	-0.36666666666667	0
bin	-0.33333333333333	0
bin	-0.3	0
bin	-0.26666666666667	0
bin	-0.23333333333333	0
bin	-0.2	0
bin	-0.16666666666667	0
bin	-0.13333333333333	0
bin	-0.1	0
bin	-0.066666666666667	0
bin	-0.033333333333333	0
bin	0	0
bin	0.033333333333333	0
bin	0.066666666666667	0
bin	0.1	0
bin	0.13333333333333	0
bin	0.16666666666667	0
bin	0.2	0
bin	0.23333333333333	0
bin	0.26666666666667	0
bin	0.3	0
bin	0.33333333333333	0
bin	0.36666666666667	0
bin	0.4	0
bin	0.43333333333333	0
bin	0.46666666666667	0
bin	0.5	0
scalar Net5.rte[7].queue[3] 	busy:timeavg 	0
attr interpolationmode  sample-hold
attr title  "server busy state, timeavg"
scalar Net5.rte[7].queue[3] 	qlen:timeavg 	0
attr interpolationmode  sample-hold
attr title  "queue length, timeavg"
scalar Net5.rte[7].queue[3] 	qlen:max 	0
attr interpolationmode  sample-hold
attr title  "queue length, max"
scalar Net5.rte[7].queue[3] 	drop:count 	0
attr interpolationmode  none
attr title  "dropped packet byte length, count"
attr unit  bytes
scalar Net5.rte[7].queue[3] 	drop:sum 	0
attr interpolationmode  none
attr title  "dropped packet byte length, sum"
attr unit  bytes
scalar Net5.rte[8].app 	hopCount:mean 	0
attr interpolationmode  none
attr title  "hop count of arrived packets, mean"
scalar Net5.rte[8].app 	hopCount:max 	0
attr interpolationmode  none
attr title  "hop count of arrived packets, max"
scalar Net5.rte[8].app 	endToEndDelay:mean 	0
attr interpolationmode  none
attr title  "end-to-end delay of arrived packets, mean"
attr unit  s
scalar Net5.rte[8].app 	endToEndDelay:max 	0
attr interpolationmode  none
attr title  "end-to-end delay of arrived packets, max"
attr unit  s
statistic Net5.rte[8].routing 	outputIf:histogram
field count 3
field mean -0.33333333333333
field stddev 0.57735026918963
field sum -1
field sqrsum 1
field min -1
field max 0
attr interpolationmode  none
attr title  "output interface for each routed packet, histogram"
bin	-INF	0
bin	-2	0
bin	-1	1
bin	0	2
bin	1	0
scalar Net5.rte[8].routing 	drop:count 	0
attr interpolationmode  none
attr title  "dropped packet byte length, count"
attr unit  bytes
scalar Net5.rte[8].routing 	drop:sum 	0
attr interpolationmode  none
attr title  "dropped packet byte length, sum"
attr unit  bytes
scalar Net5.rte[8].queue[0] 	rxBytes:count 	0
attr interpolationmode  none
attr title  "received packet byte length, count"
attr unit  bytes
scalar Net5.rte[8].queue[0] 	rxBytes:sum 	0
attr interpolationmode  none
attr title  "received packet byte length, sum"
attr unit  bytes
statistic Net5.rte[8].queue[0] 	rxBytes:histogram
field count 0
field mean 0
field stddev -nan
field sum 0
field sqrsum 0
field min 0
field max 0
attr interpolationmode  none
attr title  "received packet byte length, histogram"
attr unit  bytes
bin	-INF	0
bin	-0.5	0
bin	-0.46666666666667	0
bin	-0.43333333333333	0
bin	-0.4	0
bin	-0.36666666666667	0
bin	-0.33333333333333	0
bin	-0.3	0
bin	-0.26666666666667	0
bin	-0.23333333333333	0
bin	-0.2	0
bin	-0.16666666666667	0
bin	-0.13333333333333	0
bin	-0.1	0
bin	-0.066666666666667	0
bin	-0.033333333333333	0
bin	0	0
bin	0.033333333333333	0
bin	0.066666666666667	0
bin	0.1	0
bin	0.13333333333333	0
bin	0.16666666666667	0
bin	0.2	0
bin	0.23333333333333	0
bin	0.26666666666667	0
bin	0.3	0
bin	0.33333333333333	0
bin	0.36666666666667	0
bin	0.4	0
bin	0.43333333333333	0
bin	0.46666666666667	0
bin	0.5	0
scalar Net5.rte[8].queue[0] 	txBytes:count 	2
attr interpolationmode  none
attr title  "transmitting packet byte length, count"
attr unit  bytes
scalar Net5.rte[8].queue[0] 	txBytes:sum 	2048
attr interpolationmode  none
attr title  "transmitting packet byte length, sum"
attr unit  bytes
statistic Net5.rte[8].queue[0] 	txBytes:histogram
field count 2
field mean 1024
field stddev 0
field sum 2048
field sqrsum 2097152
field min 1024
field max 1024
attr interpolationmode  none
attr title  "transmitting packet byte length, histogram"
attr unit  bytes
bin	-INF	0
bin	1023	0
bin	1024	2
bin	1025	0
scalar Net5.rte[8].queue[0] 	busy:timeavg 	0.32083581030939
attr interpolationmode  sample-hold
attr title  "server busy state, timeavg"
scalar Net5.rte[8].queue[0] 	qlen:timeavg 	0
attr interpolationmode  sample-hold
attr title  "queue length, timeavg"
scalar Net5.rte[8].queue[0] 	qlen:max 	0
attr interpolationmode  sample-hold
attr title  "queue length, max"
scalar Net5.rte[8].queue[0] 	drop:count 	0
attr interpolationmode  none
attr title  "dropped packet byte length, count"
attr unit  bytes
scalar Net5.rte[8].queue[0] 	drop:sum 	0
attr interpolationmode  none
attr title  "dropped packet byte length, sum"
attr unit  bytes
version 2
run Net5-0-20171130-12:11:58-9692
attr configname Net5
attr datetime 20171130-12:11:58
attr experiment Net5
attr inifile omnetpp.ini
attr iterationvars ""
attr iterationvars2 $repetition=0
attr measurement ""
attr network networks.Net5
attr processid 9692
attr repetition 0
attr replication #0
attr resultdir results
attr runnumber 0
attr seedset 0

scalar Net5.rte[0].app 	hopCount:mean 	1
attr interpolationmode  none
attr title  "hop count of arrived packets, mean"
scalar Net5.rte[0].app 	hopCount:max 	1
attr interpolationmode  none
attr title  "hop count of arrived packets, max"
scalar Net5.rte[0].app 	endToEndDelay:mean 	0.009192
attr interpolationmode  none
attr title  "end-to-end delay of arrived packets, mean"
attr unit  s
scalar Net5.rte[0].app 	endToEndDelay:max 	0.009192
attr interpolationmode  none
attr title  "end-to-end delay of arrived packets, max"
attr unit  s
statistic Net5.rte[0].routing 	outputIf:histogram
field count 3
field mean -0.33333333333333
field stddev 0.57735026918963
field sum -1
field sqrsum 1
field min -1
field max 0
attr interpolationmode  none
attr title  "output interface for each routed packet, histogram"
bin	-INF	0
bin	-2	0
bin	-1	1
bin	0	2
bin	1	0
scalar Net5.rte[0].routing 	drop:count 	0
attr interpolationmode  none
attr title  "dropped packet byte length, count"
attr unit  bytes
scalar Net5.rte[0].routing 	drop:sum 	0
attr interpolationmode  none
attr title  "dropped packet byte length, sum"
attr unit  bytes
scalar Net5.rte[0].queue[0] 	rxBytes:count 	1
attr interpolationmode  none
attr title  "received packet byte length, count"
attr unit  bytes
scalar Net5.rte[0].queue[0] 	rxBytes:sum 	1024
attr interpolationmode  none
attr title  "received packet byte length, sum"
attr unit  bytes
statistic Net5.rte[0].queue[0] 	rxBytes:histogram
field count 1
field mean 1024
field stddev -nan
field sum 1024
field sqrsum 1048576
field min 1024
field max 1024
attr interpolationmode  none
attr title  "received packet byte length, histogram"
attr unit  bytes
bin	-INF	0
bin	1023	0
bin	1024	1
bin	1025	0
scalar Net5.rte[0].queue[0] 	txBytes:count 	2
attr interpolationmode  none
attr title  "transmitting packet byte length, count"
attr unit  bytes
scalar Net5.rte[0].queue[0] 	txBytes:sum 	2048
attr interpolationmode  none
attr title  "transmitting packet byte length, sum"
attr unit  bytes
statistic Net5.rte[0].queue[0] 	txBytes:histogram
field count 2
field mean 1024
field stddev 0
field sum 2048
field sqrsum 2097152
field min 1024
field max 1024
attr interpolationmode  none
attr title  "transmitting packet byte length, histogram"
attr unit  bytes
bin	-INF	0
bin	1023	0
bin	1024	2
bin	1025	0
scalar Net5.rte[0].queue[0] 	busy:timeavg 	0.37552518845571
attr interpolationmode  sample-hold
attr title  "server busy state, timeavg"
scalar Net5.rte[0].queue[0] 	qlen:timeavg 	0
attr interpolationmode  sample-hold
attr title  "queue length, timeavg"
scalar Net5.rte[0].queue[0] 	qlen:max 	0
attr interpolationmode  sample-hold
attr title  "queue length, max"
scalar Net5.rte[0].queue[0] 	drop:count 	0
attr interpolationmode  none
attr title  "dropped packet byte length, count"
attr unit  bytes
scalar Net5.rte[0].queue[0] 	drop:sum 	0
attr interpolationmode  none
attr title  "dropped packet byte length, sum"
attr unit  bytes
scalar Net5.rte[0].queue[1] 	rxBytes:count 	0
attr interpolationmode  none
attr title  "received packet byte length, count"
attr unit  bytes
scalar Net5.rte[0].queue[1] 	rxBytes:sum 	0
attr interpolationmode  none
attr title  "received packet byte length, sum"
attr unit  bytes
statistic Net5.rte[0].queue[1] 	rxBytes:histogram
field count 0
field mean 0
field stddev -nan
field sum 0
field sqrsum 0
field min 0
field max 0
attr interpolationmode  none
attr title  "received packet byte length, histogram"
attr unit  bytes
bin	-INF	0
bin	-0.5	0
bin	-0.46666666666667	0
bin	-0.43333333333333	0
bin	-0.4	0
bin	-0.36666666666667	0
bin	-0.33333333333333	0
bin	-0.3	0
bin	-0.26666666666667	0
bin	-0.23333333333333	0
bin	-0.2	0
bin	-0.16666666666667	0
bin	-0.13333333333333	0
bin	-0.1	0
bin	-0.066666666666667	0
bin	-0.033333333333333	0
bin	0	0
bin	0.033333333333333	0
bin	0.066666666666667	0
bin	0.1	0
bin	0.13333333333333	0
bin	0.16666666666667	0
bin	0.2	0
bin	0.23333333333333	0
bin	0.26666666666667	0
bin	0.3	0
bin	0.33333333333333	0
bin	0.36666666666667	0
bin	0.4	0
bin	0.43333333333333	0
bin	0.46666666666667	0
bin	0.5	0
scalar Net5.rte[0].queue[1] 	txBytes:count 	0
attr interpolationmode  none
attr title  "transmitting packet byte length, count"
attr unit  bytes
scalar Net5.rte[0].queue[1] 	txBytes:sum 	0
attr interpolationmode  none
attr title  "transmitting packet byte length, sum"
attr unit  bytes
statistic Net5.rte[0].queue[1] 	txBytes:histogram
field count 0
field mean 0
field stddev -nan
field sum 0
field sqrsum 0
field min 0
field max 0
attr interpolationmode  none
attr title  "transmitting packet byte length, histogram"
attr unit  bytes
bin	-INF	0
bin	-0.5	0
bin	-0.46666666666667	0
bin	-0.43333333333333	0
bin	-0.4	0
bin	-0.36666666666667	0
bin	-0.33333333333333	0
bin	-0.3	0
bin	-0.26666666666667	0
bin	-0.23333333333333	0
bin	-0.2	0
bin	-0.16666666666667	0
bin	-0.13333333333333	0
bin	-0.1	0
bin	-0.066666666666667	0
bin	-0.033333333333333	0
bin	0	0
bin	0.033333333333333	0
bin	0.066666666666667	0
bin	0.1	0
bin	0.13333333333333	0
bin	0.16666666666667	0
bin	0.2	0
bin	0.23333333333333	0
bin	0.26666666666667	0
bin	0.3	0
bin	0.33333333333333	0
bin	0.36666666666667	0
bin	0.4	0
bin	0.43333333333333	0
bin	0.46666666666667	0
bin	0.5	0
scalar Net5.rte[0].queue[1] 	busy:timeavg 	0
attr interpolationmode  sample-hold
attr title  "server busy state, timeavg"
scalar Net5.rte[0].queue[1] 	qlen:timeavg 	0
attr interpolationmode  sample-hold
attr title  "queue length, timeavg"
scalar Net5.rte[0].queue[1] 	qlen:max 	0
attr interpolationmode  sample-hold
attr title  "queue length, max"
scalar Net5.rte[0].queue[1] 	drop:count 	0
attr interpolationmode  none
attr title  "dropped packet byte length, count"
attr unit  bytes
scalar Net5.rte[0].queue[1] 	drop:sum 	0
attr interpolationmode  none
attr title  "dropped packet byte length, sum"
attr unit  bytes
scalar Net5.rte[1].app 	hopCount:mean 	1
attr interpolationmode  none
attr title  "hop count of arrived packets, mean"
scalar Net5.rte[1].app 	hopCount:max 	1
attr interpolationmode  none
attr title  "hop count of arrived packets, max"
scalar Net5.rte[1].app 	endToEndDelay:mean 	0.009192
attr interpolationmode  none
attr title  "end-to-end delay of arrived packets, mean"
attr unit  s
scalar Net5.rte[1].app 	endToEndDelay:max 	0.009192
attr interpolationmode  none
attr title  "end-to-end delay of arrived packets, max"
attr unit  s
statistic Net5.rte[1].routing 	outputIf:histogram
field count 6
field mean 0
field stddev 1.2649110640674
field sum 0
field sqrsum 8
field min -1
field max 2
attr interpolationmode  none
attr title  "output interface for each routed packet, histogram"
bin	-INF	0
bin	-3	0
bin	-2	0
bin	-1	3
bin	0	1
bin	1	1
bin	2	1
bin	3	0
bin	4	0
scalar Net5.rte[1].routing 	drop:count 	0
attr interpolationmode  none
attr title  "dropped packet byte length, count"
attr unit  bytes
scalar Net5.rte[1].routing 	drop:sum 	0
attr interpolationmode  none
attr title  "dropped packet byte length, sum"
attr unit  bytes
scalar Net5.rte[1].queue[0] 	rxBytes:count 	2
attr interpolationmode  none
attr title  "received packet byte length, count"
attr unit  bytes
scalar Net5.rte[1].queue[0] 	rxBytes:sum 	2048
attr interpolationmode  none
attr title  "received packet byte length, sum"
attr unit  bytes
statistic Net5.rte[1].queue[0] 	rxBytes:histogram
field count 2
field mean 1024
field stddev 0
field sum 2048
field sqrsum 2097152
field min 1024
field max 1024
attr interpolationmode  none
attr title  "received packet byte length, histogram"
attr unit  bytes
bin	-INF	0
bin	1023	0
bin	1024	2
bin	1025	0
scalar Net5.rte[1].queue[0] 	txBytes:count 	1
attr interpolationmode  none
attr title  "transmitting packet byte length, count"
attr unit  bytes
scalar Net5.rte[1].queue[0] 	txBytes:sum 	1024
attr interpolationmode  none
attr title  "transmitting packet byte length, sum"
attr unit  bytes
statistic Net5.rte[1].queue[0] 	txBytes:histogram
field count 1
field mean 1024
field stddev -nan
field sum 1024
field sqrsum 1048576
field min 1024
field max 1024
attr interpolationmode  none
attr title  "transmitting packet byte length, histogram"
attr unit  bytes
bin	-INF	0
bin	1023	0
bin	1024	1
bin	1025	0
scalar Net5.rte[1].queue[0] 	busy:timeavg 	0.18776259422785
attr interpolationmode  sample-hold
attr title  "server busy state, timeavg"
scalar Net5.rte[1].queue[0] 	qlen:timeavg 	0
attr interpolationmode  sample-hold
attr title  "queue length, timeavg"
scalar Net5.rte[1].queue[0] 	qlen:max 	0
attr interpolationmode  sample-hold
attr title  "queue length, max"
scalar Net5.rte[1].queue[0] 	drop:count 	0
attr interpolationmode  none
attr title  "dropped packet byte length, count"
attr unit  bytes
scalar Net5.rte[1].queue[0] 	drop:sum 	0
attr interpolationmode  none
attr title  "dropped packet byte length, sum"
attr unit  bytes
scalar Net5.rte[1].queue[1] 	rxBytes:count 	2
attr interpolationmode  none
attr title  "received packet byte length, count"
attr unit  bytes
scalar Net5.rte[1].queue[1] 	rxBytes:sum 	2048
attr interpolationmode  none
attr title  "received packet byte length, sum"
attr unit  bytes
statistic Net5.rte[1].queue[1] 	rxBytes:histogram
field count 2
field mean 1024
field stddev 0
field sum 2048
field sqrsum 2097152
field min 1024
field max 1024
attr interpolationmode  none
attr title  "received packet byte length, histogram"
attr unit  bytes
bin	-INF	0
bin	1023	0
bin	1024	2
bin	1025	0
scalar Net5.rte[1].queue[1] 	txBytes:count 	1
attr interpolationmode  none
attr title  "transmitting packet byte length, count"
attr unit  bytes
scalar Net5.rte[1].queue[1] 	txBytes:sum 	1024
attr interpolationmode  none
attr title  "transmitting packet byte length, sum"
attr unit  bytes
statistic Net5.rte[1].queue[1] 	txBytes:histogram
field count 1
field mean 1024
field stddev -nan
field sum 1024
field sqrsum 1048576
field min 1024
field max 1024
attr interpolationmode  none
attr title  "transmitting packet byte length, histogram"
attr unit  bytes
bin	-INF	0
bin	1023	0
bin	1024	1
bin	1025	0
scalar Net5.rte[1].queue[1] 	busy:timeavg 	0.034262013051558
attr interpolationmode  sample-hold
attr title  "server busy state, timeavg"
scalar Net5.rte[1].queue[1] 	qlen:timeavg 	0
attr interpolationmode  sample-hold
attr title  "queue length, timeavg"
scalar Net5.rte[1].queue[1] 	qlen:max 	0
attr interpolationmode  sample-hold
attr title  "queue length, max"
scalar Net5.rte[1].queue[1] 	drop:count 	0
attr interpolationmode  none
attr title  "dropped packet byte length, count"
attr unit  bytes
scalar Net5.rte[1].queue[1] 	drop:sum 	0
attr interpolationmode  none
attr title  "dropped packet byte length, sum"
attr unit  bytes
scalar Net5.rte[1].queue[2] 	rxBytes:count 	0
attr interpolationmode  none
attr title  "received packet byte length, count"
attr unit  bytes
scalar Net5.rte[1].queue[2] 	rxBytes:sum 	0
attr interpolationmode  none
attr title  "received packet byte length, sum"
attr unit  bytes
statistic Net5.rte[1].queue[2] 	rxBytes:histogram
field count 0
field mean 0
field stddev -nan
field sum 0
field sqrsum 0
field min 0
field max 0
attr interpolationmode  none
attr title  "received packet byte length, histogram"
attr unit  bytes
bin	-INF	0
bin	-0.5	0
bin	-0.46666666666667	0
bin	-0.43333333333333	0
bin	-0.4	0
bin	-0.36666666666667	0
bin	-0.33333333333333	0
bin	-0.3	0
bin	-0.26666666666667	0
bin	-0.23333333333333	0
bin	-0.2	0
bin	-0.16666666666667	0
bin	-0.13333333333333	0
bin	-0.1	0
bin	-0.066666666666667	0
bin	-0.033333333333333	0
bin	0	0
[...]
attr interpolationmode  none
attr title  "dropped packet byte length, count"
attr unit  bytes
scalar Net5.rte[2].queue[1] 	drop:sum 	0
attr interpolationmode  none
attr title  "dropped packet byte length, sum"
attr unit  bytes
scalar Net5.rte[2].queue[2] 	rxBytes:count 	4
attr interpolationmode  none
attr title  "received packet byte length, count"
attr unit  bytes
scalar Net5.rte[2].queue[2] 	rxBytes:sum 	4096
attr interpolationmode  none
attr title  "received packet byte length, sum"
attr unit  bytes
statistic Net5.rte[2].queue[2] 	rxBytes:histogram
field count 4
field mean 1024
field stddev 0
field sum 4096
field sqrsum 4194304
field min 1024
field max 1024
attr interpolationmode  none
attr title  "received packet byte length, histogram"
attr unit  bytes
bin	-INF	0
bin	1023	0
bin	1024	4
bin	1025	0
scalar Net5.rte[2].queue[2] 	txBytes:count 	8
attr interpolationmode  none
attr title  "transmitting packet byte length, count"
attr unit  bytes
scalar Net5.rte[2].queue[2] 	txBytes:sum 	8192
attr interpolationmode  none
attr title  "transmitting packet byte length, sum"
attr unit  bytes
statistic Net5.rte[2].queue[2] 	txBytes:histogram
field count 8
field mean 1024
field stddev 0
field sum 8192
field sqrsum 8388608
field min 1024
field max 1024
attr interpolationmode  none
attr title  "transmitting packet byte length, histogram"
attr unit  bytes
bin	-INF	0
bin	1023	0
bin	1024	8
bin	1025	0
scalar Net5.rte[2].queue[2] 	busy:timeavg 	0.54840450481394
attr interpolationmode  sample-hold
attr title  "server busy state, timeavg"
scalar Net5.rte[2].queue[2] 	qlen:timeavg 	0
attr interpolationmode  sample-hold
attr title  "queue length, timeavg"
scalar Net5.rte[2].queue[2] 	qlen:max 	0
attr interpolationmode  sample-hold
attr title  "queue length, max"
scalar Net5.rte[2].queue[2] 	drop:count 	0
attr interpolationmode  none
attr title  "dropped packet byte length, count"
attr unit  bytes
scalar Net5.rte[2].queue[2] 	drop:sum 	0
attr interpolationmode  none
attr title  "dropped packet byte length, sum"
attr unit  bytes
scalar Net5.rte[2].queue[3] 	rxBytes:count 	8
attr interpolationmode  none
attr title  "received packet byte length, count"
attr unit  bytes
scalar Net5.rte[2].queue[3] 	rxBytes:sum 	8192
attr interpolationmode  none
attr title  "received packet byte length, sum"
attr unit  bytes
statistic Net5.rte[2].queue[3] 	rxBytes:histogram
field count 8
field mean 1024
field stddev 0
field sum 8192
field sqrsum 8388608
field min 1024
field max 1024
attr interpolationmode  none
attr title  "received packet byte length, histogram"
attr unit  bytes
bin	-INF	0
bin	1023	0
bin	1024	8
bin	1025	0
scalar Net5.rte[2].queue[3] 	txBytes:count 	4
attr interpolationmode  none
attr title  "transmitting packet byte length, count"
attr unit  bytes
scalar Net5.rte[2].queue[3] 	txBytes:sum 	4096
attr interpolationmode  none
attr title  "transmitting packet byte length, sum"
attr unit  bytes
statistic Net5.rte[2].queue[3] 	txBytes:histogram
field count 4
field mean 1024
field stddev 0
field sum 4096
field sqrsum 4194304
field min 1024
field max 1024
attr interpolationmode  none
attr title  "transmitting packet byte length, histogram"
attr unit  bytes
bin	-INF	0
bin	1023	0
bin	1024	4
bin	1025	0
scalar Net5.rte[2].queue[3] 	busy:timeavg 	0.2249907582739
attr interpolationmode  sample-hold
attr title  "server busy state, timeavg"
scalar Net5.rte[2].queue[3] 	qlen:timeavg 	0
attr interpolationmode  sample-hold
attr title  "queue length, timeavg"
scalar Net5.rte[2].queue[3] 	qlen:max 	0
attr interpolationmode  sample-hold
attr title  "queue length, max"
scalar Net5.rte[2].queue[3] 	drop:count 	0
attr interpolationmode  none
attr title  "dropped packet byte length, count"
attr unit  bytes
scalar Net5.rte[2].queue[3] 	drop:sum 	0
attr interpolationmode  none
attr title  "dropped packet byte length, sum"
attr unit  bytes
scalar Net5.rte[3].app 	hopCount:mean 	-nan
attr interpolationmode  none
attr title  "hop count of arrived packets, mean"
scalar Net5.rte[3].app 	hopCount:max 	-nan
attr interpolationmode  none
attr title  "hop count of arrived packets, max"
scalar Net5.rte[3].app 	endToEndDelay:mean 	-nan
attr interpolationmode  none
attr title  "end-to-end delay of arrived packets, mean"
attr unit  s
scalar Net5.rte[3].app 	endToEndDelay:max 	-nan
attr interpolationmode  none
attr title  "end-to-end delay of arrived packets, max"
attr unit  s
statistic Net5.rte[3].routing 	outputIf:histogram
field count 0
field mean 0
field stddev -nan
field sum 0
field sqrsum 0
field min 0
field max 0
attr interpolationmode  none
attr title  "output interface for each routed packet, histogram"
bin	-INF	0
bin	-0.5	0
bin	-0.46666666666667	0
bin	-0.43333333333333	0
bin	-0.4	0
bin	-0.36666666666667	0
bin	-0.33333333333333	0
bin	-0.3	0
bin	-0.26666666666667	0
bin	-0.23333333333333	0
bin	-0.2	0
bin	-0.16666666666667	0
bin	-0.13333333333333	0
bin	-0.1	0
bin	-0.066666666666667	0
bin	-0.033333333333333	0
bin	0	0
bin	0.033333333333333	0
bin	0.066666666666667	0
bin	0.1	0
bin	0.13333333333333	0
bin	0.16666666666667	0
bin	0.2	0
bin	0.23333333333333	0
bin	0.26666666666667	0
bin	0.3	0
bin	0.33333333333333	0
bin	0.36666666666667	0
bin	0.4	0
bin	0.43333333333333	0
bin	0.46666666666667	0
bin	0.5	0
scalar Net5.rte[3].routing 	drop:count 	0
attr interpolationmode  none
attr title  "dropped packet byte length, count"
attr unit  bytes
scalar Net5.rte[3].routing 	drop:sum 	0
attr interpolationmode  none
attr title  "dropped packet byte length, sum"
attr unit  bytes
scalar Net5.rte[3].queue[0] 	rxBytes:count 	0
attr interpolationmode  none
attr title  "received packet byte length, count"
attr unit  bytes
scalar Net5.rte[3].queue[0] 	rxBytes:sum 	0
attr interpolationmode  none
attr title  "received packet byte length, sum"
attr unit  bytes
statistic Net5.rte[3].queue[0] 	rxBytes:histogram
field count 0
field mean 0
field stddev -nan
field sum 0
field sqrsum 0
field min 0
field max 0
attr interpolationmode  none
attr title  "received packet byte length, histogram"
attr unit  bytes
bin	-INF	0
bin	-0.5	0
bin	-0.46666666666667	0
bin	-0.43333333333333	0
bin	-0.4	0
bin	-0.36666666666667	0
bin	-0.33333333333333	0
bin	-0.3	0
bin	-0.26666666666667	0
bin	-0.23333333333333	0
bin	-0.2	0
bin	-0.16666666666667	0
bin	-0.13333333333333	0
bin	-0.1	0
bin	-0.066666666666667	0
bin	-0.033333333333333	0
bin	0	0
bin	0.033333333333333	0
bin	0.066666666666667	0
bin	0.1	0
bin	0.13333333333333	0
bin	0.16666666666667	0
bin	0.2	0
bin	0.23333333333333	0
bin	0.26666666666667	0
bin	0.3	0
bin	0.33333333333333	0
bin	0.36666666666667	0
bin	0.4	0
bin	0.43333333333333	0
bin	0.46666666666667	0
bin	0.5	0
scalar Net5.rte[3].queue[0] 	txBytes:count 	0
attr interpolationmode  none
attr title  "transmitting packet byte length, count"
attr unit  bytes
scalar Net5.rte[3].queue[0] 	txBytes:sum 	0
attr interpolationmode  none
attr title  "transmitting packet byte length, sum"
attr unit  bytes
statistic Net5.rte[3].queue[0] 	txBytes:histogram
field count 0
field mean 0
field stddev -nan
field sum 0
field sqrsum 0
field min 0
field max 0
attr interpolationmode  none
attr title  "transmitting packet byte length, histogram"
attr unit  bytes
bin	-INF	0
bin	-0.5	0
bin	-0.46666666666667	0
bin	-0.43333333333333	0
bin	-0.4	0
bin	-0.36666666666667	0
bin	-0.33333333333333	0
bin	-0.3	0
bin	-0.26666666666667	0
bin	-0.23333333333333	0
bin	-0.2	0
bin	-0.16666666666667	0
bin	-0.13333333333333	0
bin	-0.1	0
bin	-0.066666666666667	0
bin	-0.033333333333333	0
bin	0	0
bin	0.033333333333333	0
bin	0.066666666666667	0
bin	0.1	0
bin	0.13333333333333	0
bin	0.16666666666667	0
bin	0.2	0
bin	0.23333333333333	0
bin	0.26666666666667	0
bin	0.3	0
bin	0.33333333333333	0
bin	0.36666666666667	0
bin	0.4	0
bin	0.43333333333333	0
bin	0.46666666666667	0
bin	0.5	0
scalar Net5.rte[3].queue[0] 	busy:timeavg 	0
attr interpolationmode  sample-hold
attr title  "server busy state, timeavg"
scalar Net5.rte[3].queue[0] 	qlen:timeavg 	0
attr interpolationmode  sample-hold
attr title  "queue length, timeavg"
scalar Net5.rte[3].queue[0] 	qlen:max 	0
attr interpolationmode  sample-hold
attr title  "queue length, max"
scalar Net5.rte[3].queue[0] 	drop:count 	0
attr interpolationmode  none
attr title  "dropped packet byte length, count"
attr unit  bytes
scalar Net5.rte[3].queue[0] 	drop:sum 	0
attr interpolationmode  none
attr title  "dropped packet byte length, sum"
attr unit  bytes
scalar Net5.rte[3].queue[1] 	rxBytes:count 	0
attr interpolationmode  none
attr title  "received packet byte length, count"
attr unit  bytes
scalar Net5.rte[3].queue[1] 	rxBytes:sum 	0
attr interpolationmode  none
attr title  "received packet byte length, sum"
attr unit  bytes
statistic Net5.rte[3].queue[1] 	rxBytes:histogram
field count 0
field mean 0
field stddev -nan
field sum 0
field sqrsum 0
field min 0
field max 0
attr interpolationmode  none
attr title  "received packet byte length, histogram"
attr unit  bytes
bin	-INF	0
bin	-0.5	0
bin	-0.46666666666667	0
bin	-0.43333333333333	0
bin	-0.4	0
bin	-0.36666666666667	0
bin	-0.33333333333333	0
bin	-0.3	0
bin	-0.26666666666667	0
bin	-0.23333333333333	0
bin	-0.2	0
bin	-0.16666666666667	0
bin	-0.13333333333333	0
bin	-0.1	0
bin	-0.066666666666667	0
bin	-0.033333333333333	0
bin	0	0
bin	0.033333333333333	0
bin	0.066666666666667	0
bin	0.1	0
bin	0.13333333333333	0
bin	0.16666666666667	0
bin	0.2	0
bin	0.23333333333333	0
bin	0.26666666666667	0
bin	0.3	0
bin	0.33333333333333	0
bin	0.36666666666667	0
bin	0.4	0
bin	0.43333333333333	0
bin	0.46666666666667	0
bin	0.5	0
scalar Net5.rte[3].queue[1] 	txBytes:count 	0
attr interpolationmode  none
attr title  "transmitting packet byte length, count"
attr unit  bytes
scalar Net5.rte[3].queue[1] 	txBytes:sum 	0
attr interpolationmode  none
attr title  "transmitting packet byte length, sum"
attr unit  bytes
statistic Net5.rte[3].queue[1] 	txBytes:histogram
field count 0
field mean 0
field stddev -nan
field sum 0
field sqrsum 0
field min 0
field max 0
attr interpolationmode  none
attr title  "transmitting packet byte length, histogram"
attr unit  bytes
bin	-INF	0
bin	-0.5	0
bin	-0.46666666666667	0
bin	-0.43333333333333	0
bin	-0.4	0
bin	-0.36666666666667	0
bin	-0.33333333333333	0
bin	-0.3	0
bin	-0.26666666666667	0
bin	-0.23333333333333	0
bin	-0.2	0
bin	-0.16666666666667	0
bin	-0.13333333333333	0
bin	-0.1	0
bin	-0.066666666666667	0
bin	-0.033333333333333	0
bin	0	0
bin	0.033333333333333	0
bin	0.066666666666667	0
bin	0.1	0
bin	0.13333333333333	0
bin	0.16666666666667	0
bin	0.2	0
bin	0.23333333333333	0
bin	0.26666666666667	0
bin	0.3	0
bin	0.33333333333333	0
bin	0.36666666666667	0
bin	0.4	0
bin	0.43333333333333	0
bin	0.46666666666667	0
bin	0.5	0
scalar Net5.rte[3].queue[1] 	busy:timeavg 	0
attr interpolationmode  sample-hold
attr title  "server busy state, timeavg"
scalar Net5.rte[3].queue[1] 	qlen:timeavg 	0
attr interpolationmode  sample-hold
attr title  "queue length, timeavg"
scalar Net5.rte[3].queue[1] 	qlen:max 	0
attr interpolationmode  sample-hold
attr title  "queue length, max"
scalar Net5.rte[3].queue[1] 	drop:count 	0
attr interpolationmode  none
attr title  "dropped packet byte length, count"
attr unit  bytes
scalar Net5.rte[3].queue[1] 	drop:sum 	0
attr interpolationmode  none
attr title  "dropped packet byte length, sum"
attr unit  bytes
scalar Net5.rte[3].queue[2] 	rxBytes:count 	0
attr interpolationmode  none
attr title  "received packet byte length, count"
attr unit  bytes
scalar Net5.rte[3].queue[2] 	rxBytes:sum 	0
attr interpolationmode  none
attr title  "received packet byte length, sum"
attr unit  bytes
statistic Net5.rte[3].queue[2] 	rxBytes:histogram
field count 0
field mean 0
field stddev -nan
field sum 0
field sqrsum 0
field min 0
field max 0
attr interpolationmode  none
attr title  "received packet byte length, histogram"
attr unit  bytes
bin	-INF	0
bin	-0.5	0
bin	-0.46666666666667	0
bin	-0.43333333333333	0
bin	-0.4	0
bin	-0.36666666666667	0
bin	-0.33333333333333	0
bin	-0.3	0
bin	-0.26666666666667	0
bin	-0.23333333333333	0
bin	-0.2	0
bin	-0.16666666666667	0
bin	-0.13333333333333	0
bin	-0.1	0
bin	-0.066666666666667	0
bin	-0.033333333333333	0
bin	0	0
bin	0.033333333333333	0
bin	0.066666666666667	0
bin	0.1	0
bin	0.13333333333333	0
bin	0.16666666666667	0
bin	0.2	0
bin	0.23333333333333	0
bin	0.26666666666667	0
bin	0.3	0
bin	0.33333333333333	0
bin	0.36666666666667	0
bin	0.4	0
bin	0.43333333333333	0
bin	0.46666666666667	0
bin	0.5	0
scalar Net5.rte[3].queue[2] 	txBytes:count 	0
attr interpolationmode  none
attr title  "transmitting packet byte length, count"
attr unit  bytes
scalar Net5.rte[3].queue[2] 	txBytes:sum 	0
attr interpolationmode  none
attr title  "transmitting packet byte length, sum"
attr unit  bytes
statistic Net5.rte[3].queue[2] 	txBytes:histogram
field count 0
field mean 0
field stddev -nan
field sum 0
field sqrsum 0
field min 0
field max 0
attr interpolationmode  none
attr title  "transmitting packet byte length, histogram"
attr unit  bytes
bin	-INF	0
bin	-0.5	0
bin	-0.46666666666667	0
bin	-0.43333333333333	0
bin	-0.4	0
bin	-0.36666666666667	0
bin	-0.33333333333333	0
bin	-0.3	0
bin	-0.26666666666667	0
bin	-0.23333333333333	0
bin	-0.2	0
bin	-0.16666666666667	0
bin	-0.13333333333333	0
bin	-0.1	0
bin	-0.066666666666667	0
bin	-0.033333333333333	0
bin	0	0
bin	0.033333333333333	0
bin	0.066666666666667	0
bin	0.1	0
bin	0.13333333333333	0
bin	0.16666666666667	0
bin	0.2	0
bin	0.23333333333333	0
bin	0.26666666666667	0
bin	0.3	0
bin	0.33333333333333	0
bin	0.36666666666667	0
bin	0.4	0
bin	0.43333333333333	0
bin	0.46666666666667	0
bin	0.5	0
scalar Net5.rte[3].queue[2] 	busy:timeavg 	0
attr interpolationmode  sample-hold
attr title  "server busy state, timeavg"
scalar Net5.rte[3].queue[2] 	qlen:timeavg 	0
attr interpolationmode  sample-hold
attr title  "queue length, timeavg"
scalar Net5.rte[3].queue[2] 	qlen:max 	0
attr interpolationmode  sample-hold
attr title  "queue length, max"
scalar Net5.rte[3].queue[2] 	drop:count 	0
attr interpolationmode  none
attr title  "dropped packet byte length, count"
attr unit  bytes
scalar Net5.rte[3].queue[2] 	drop:sum 	0
attr interpolationmode  none
attr title  "dropped packet byte length, sum"
attr unit  bytes
scalar Net5.rte[4].app 	hopCount:mean 	1.75
attr interpolationmode  none
attr title  "hop count of arrived packets, mean"
scalar Net5.rte[4].app 	hopCount:max 	2
attr interpolationmode  none
attr title  "hop count of arrived packets, max"
scalar Net5.rte[4].app 	endToEndDelay:mean 	0.01672060310675
attr interpolationmode  none
attr title  "end-to-end delay of arrived packets, mean"
attr unit  s
scalar Net5.rte[4].app 	endToEndDelay:max 	0.02648255533
attr interpolationmode  none
attr title  "end-to-end delay of arrived packets, max"
attr unit  s
statistic Net5.rte[4].routing 	outputIf:histogram
field count 13
field mean -0.23076923076923
field stddev 1.0127393670837
field sum -3
field sqrsum 13
field min -1
field max 1
attr interpolationmode  none
attr title  "output interface for each routed packet, histogram"
bin	-INF	0
bin	-2	0
bin	-1	8
bin	0	0
bin	1	5
bin	2	0
scalar Net5.rte[4].routing 	drop:count 	0
attr interpolationmode  none
attr title  "dropped packet byte length, count"
attr unit  bytes
scalar Net5.rte[4].routing 	drop:sum 	0
attr interpolationmode  none
attr title  "dropped packet byte length, sum"
attr unit  bytes
scalar Net5.rte[4].queue[0] 	rxBytes:count 	0
attr interpolationmode  none
attr title  "received packet byte length, count"
attr unit  bytes
scalar Net5.rte[4].queue[0] 	rxBytes:sum 	0
attr interpolationmode  none
attr title  "received packet byte length, sum"
attr unit  bytes
statistic Net5.rte[4].queue[0] 	rxBytes:histogram
field count 0
field mean 0
field stddev -nan
field sum 0
field sqrsum 0
field min 0
field max 0
attr interpolationmode  none
attr title  "received packet byte length, histogram"
attr unit  bytes
bin	-INF	0
bin	-0.5	0
bin	-0.46666666666667	0
bin	-0.43333333333333	0
bin	-0.4	0
bin	-0.36666666666667	0
bin	-0.33333333333333	0
bin	-0.3	0
bin	-0.26666666666667	0
bin	-0.23333333333333	0
bin	-0.2	0
bin	-0.16666666666667	0
bin	-0.13333333333333	0
bin	-0.1	0
bin	-0.066666666666667	0
bin	-0.033333333333333	0
bin	0	0
bin	0.033333333333333	0
bin	0.066666666666667	0
bin	0.1	0
bin	0.13333333333333	0
bin	0.16666666666667	0
bin	0.2	0
bin	0.23333333333333	0
bin	0.26666666666667	0
bin	0.3	0
bin	0.33333333333333	0
bin	0.36666666666667	0
bin	0.4	0
bin	0.43333333333333	0
bin	0.46666666666667	0
bin	0.5	0
scalar Net5.rte[4].queue[0] 	txBytes:count 	0
attr interpolationmode  none
attr title  "transmitting packet byte length, count"
attr unit  bytes
scalar Net5.rte[4].queue[0] 	txBytes:sum 	0
attr interpolationmode  none
attr title  "transmitting packet byte length, sum"
attr unit  bytes
statistic Net5.rte[4].queue[0] 	txBytes:histogram
field count 0
field mean 0
field stddev -nan
field sum 0
field sqrsum 0
field min 0
field max 0
attr interpolationmode  none
attr title  "transmitting packet byte length, histogram"
attr unit  bytes
bin	-INF	0
bin	-0.5	0
bin	-0.46666666666667	0
bin	-0.43333333333333	0
bin	-0.4	0
bin	-0.36666666666667	0
bin	-0.33333333333333	0
bin	-0.3	0
bin	-0.26666666666667	0
bin	-0.23333333333333	0
bin	-0.2	0
bin	-0.16666666666667	0
bin	-0.13333333333333	0
bin	-0.1	0
bin	-0.066666666666667	0
bin	-0.033333333333333	0
bin	0	0
bin	0.033333333333333	0
bin	0.066666666666667	0
bin	0.1	0
bin	0.13333333333333	0
bin	0.16666666666667	0
bin	0.2	0
bin	0.23333333333333	0
bin	0.26666666666667	0
bin	0.3	0
bin	0.33333333333333	0
bin	0.36666666666667	0
bin	0.4	0
bin	0.43333333333333	0
bin	0.46666666666667	0
bin	0.5	0
scalar Net5.rte[4].queue[0] 	busy:timeavg 	0
attr interpolationmode  sample-hold
attr title  "server busy state, timeavg"
scalar Net5.rte[4].queue[0] 	qlen:timeavg 	0
attr interpolationmode  sample-hold
attr title  "queue length, timeavg"
scalar Net5.rte[4].queue[0] 	qlen:max 	0
attr interpolationmode  sample-hold
attr title  "queue length, max"
scalar Net5.rte[4].queue[0] 	drop:count 	0
attr interpolationmode  none
attr title  "dropped packet byte length, count"
attr unit  bytes
scalar Net5.rte[4].queue[0] 	drop:sum 	0
attr interpolationmode  none
attr title  "dropped packet byte length, sum"
attr unit  bytes
scalar Net5.rte[4].queue[1] 	rxBytes:count 	7
attr interpolationmode  none
attr title  "received packet byte length, count"
attr unit  bytes
scalar Net5.rte[4].queue[1] 	rxBytes:sum 	7168
attr interpolationmode  none
attr title  "received packet byte length, sum"
attr unit  bytes
statistic Net5.rte[4].queue[1] 	rxBytes:histogram
field count 7
field mean 1024
field stddev 0
field sum 7168
field sqrsum 7340032
field min 1024
field max 1024
attr interpolationmode  none
attr title  "received packet byte length, histogram"
attr unit  bytes
bin	-INF	0
bin	1023	0
bin	1024	7
bin	1025	0
scalar Net5.rte[4].queue[1] 	txBytes:count 	5
attr interpolationmode  none
attr title  "transmitting packet byte length, count"
attr unit  bytes
scalar Net5.rte[4].queue[1] 	txBytes:sum 	5120
attr interpolationmode  none
attr title  "transmitting packet byte length, sum"
attr unit  bytes
statistic Net5.rte[4].queue[1] 	txBytes:histogram
field count 5
field mean 1024
field stddev 0
field sum 5120
field sqrsum 5242880
field min 1024
field max 1024
attr interpolationmode  none
attr title  "transmitting packet byte length, histogram"
attr unit  bytes
bin	-INF	0
bin	1023	0
bin	1024	5
bin	1025	0
scalar Net5.rte[4].queue[1] 	busy:timeavg 	0.30604096292204
attr interpolationmode  sample-hold
attr title  "server busy state, timeavg"
scalar Net5.rte[4].queue[1] 	qlen:timeavg 	0.022357052553476
attr interpolationmode  sample-hold
attr title  "queue length, timeavg"
scalar Net5.rte[4].queue[1] 	qlen:max 	1
attr interpolationmode  sample-hold
attr title  "queue length, max"
scalar Net5.rte[4].queue[1] 	drop:count 	0
attr interpolationmode  none
attr title  "dropped packet byte length, count"
attr unit  bytes
scalar Net5.rte[4].queue[1] 	drop:sum 	0
attr interpolationmode  none
attr title  "dropped packet byte length, sum"
attr unit  bytes
