version 2
run Net60CutThrough-0-20171107-09:57:16-16703
attr configname Net60CutThrough
attr datetime 20171107-09:57:16
attr experiment Net60CutThrough
attr inifile omnetpp.ini
attr iterationvars ""
attr iterationvarsf ""
attr measurement ""
attr network networks.Net60
attr processid 16703
attr repetition 0
attr replication #0
attr resultdir results
attr runnumber 0
attr seedset 0
param **.app.packetLength "4096 bytes"
param **.appType "\"App\""
param **.destAddresses "\"1 50\""
param **.sendIaTime "uniform(1ms, 5ms)"
param **.useCutThroughSwitching true

scalar Net60.rte[0].app 	hopCount:mean 	-nan
attr interpolationmode  none
attr title  "hop count of arrived packets, mean"
scalar Net60.rte[0].app 	hopCount:max 	-nan
attr interpolationmode  none
attr title  "hop count of arrived packets, max"
scalar Net60.rte[0].app 	endToEndDelay:mean 	-nan
attr interpolationmode  none
attr title  "end-to-end delay of arrived packets, mean"
attr unit  s
scalar Net60.rte[0].app 	endToEndDelay:max 	-nan
attr interpolationmode  none
attr title  "end-to-end delay of arrived packets, max"
attr unit  s
statistic Net60.rte[0].routing 	outputIf:histogram
field count 0
field mean -nan
field stddev -nan
field sum 0
field sqrsum 0
field min -nan
field max -nan
attr interpolationmode  none
attr title  "output interface for each routed packet, histogram"
bin	-INF	0
bin	-0.5	0
bin	-0.46666666666667	0
bin	-0.43333333333333	0
bin	-0.4	0
bin	-0.36666666666667	0
bin	-0.33333333333333	0
bin	-0.3	0
bin	-0.26666666666667	0
bin	-0.23333333333333	0
bin	-0.2	0
bin	-0.16666666666667	0
bin	-0.13333333333333	0
bin	-0.1	0
bin	-0.066666666666667	0
bin	-0.033333333333333	0
bin	0	0
bin	0.033333333333333	0
bin	0.066666666666667	0
bin	0.1	0
bin	0.13333333333333	0
bin	0.16666666666667	0
bin	0.2	0
bin	0.23333333333333	0
bin	0.26666666666667	0
bin	0.3	0
bin	0.33333333333333	0
bin	0.36666666666667	0
bin	0.4	0
bin	0.43333333333333	0
bin	0.46666666666667	0
bin	0.5	0
scalar Net60.rte[0].routing 	drop:count 	0
attr interpolationmode  none
attr title  "dropped packet byte length, count"
attr unit  bytes
scalar Net60.rte[0].routing 	drop:sum 	0
attr interpolationmode  none
attr title  "dropped packet byte length, sum"
attr unit  bytes
scalar Net60.rte[0].queue[0] 	rxBytes:count 	0
attr interpolationmode  none
attr title  "received packet byte length, count"
attr unit  bytes
scalar Net60.rte[0].queue[0] 	rxBytes:sum 	0
attr interpolationmode  none
attr title  "received packet byte length, sum"
attr unit  bytes
statistic Net60.rte[0].queue[0] 	rxBytes:histogram
field count 0
field mean -nan
field stddev -nan
field sum 0
field sqrsum 0
field min -nan
field max -nan
attr interpolationmode  none
attr title  "received packet byte length, histogram"
attr unit  bytes
bin	-INF	0
bin	-0.5	0
bin	-0.46666666666667	0
bin	-0.43333333333333	0
bin	-0.4	0
bin	-0.36666666666667	0
bin	-0.33333333333333	0
bin	-0.3	0
bin	-0.26666666666667	0
bin	-0.23333333333333	0
bin	-0.2	0
bin	-0.16666666666667	0
bin	-0.13333333333333	0
bin	-0.1	0
bin	-0.066666666666667	0
bin	-0.033333333333333	0
bin	0	0
bin	0.033333333333333	0
bin	0.066666666666667	0
bin	0.1	0
bin	0.13333333333333	0
bin	0.16666666666667	0
bin	0.2	0
bin	0.23333333333333	0
bin	0.26666666666667	0
bin	0.3	0
bin	0.33333333333333	0
bin	0.36666666666667	0
bin	0.4	0
bin	0.43333333333333	0
bin	0.46666666666667	0
bin	0.5	0
scalar Net60.rte[0].queue[0] 	txBytes:count 	0
attr interpolationmode  none
attr title  "transmitting packet byte length, count"
attr unit  bytes
scalar Net60.rte[0].queue[0] 	txBytes:sum 	0
attr interpolationmode  none
attr title  "transmitting packet byte length, sum"
attr unit  bytes
statistic Net60.rte[0].queue[0] 	txBytes:histogram
field count 0
field mean -nan
field stddev -nan
field sum 0
field sqrsum 0
field min -nan
field max -nan
attr interpolationmode  none
attr title  "transmitting packet byte length, histogram"
attr unit  bytes
bin	-INF	0
bin	-0.5	0
bin	-0.46666666666667	0
bin	-0.43333333333333	0
bin	-0.4	0
bin	-0.36666666666667	0
bin	-0.33333333333333	0
bin	-0.3	0
bin	-0.26666666666667	0
bin	-0.23333333333333	0
bin	-0.2	0
bin	-0.16666666666667	0
bin	-0.13333333333333	0
bin	-0.1	0
bin	-0.066666666666667	0
bin	-0.033333333333333	0
bin	0	0
bin	0.033333333333333	0
bin	0.066666666666667	0
bin	0.1	0
bin	0.13333333333333	0
bin	0.16666666666667	0
bin	0.2	0
bin	0.23333333333333	0
bin	0.26666666666667	0
bin	0.3	0
bin	0.33333333333333	0
bin	0.36666666666667	0
bin	0.4	0
bin	0.43333333333333	0
bin	0.46666666666667	0
bin	0.5	0
scalar Net60.rte[0].queue[0] 	busy:timeavg 	0
attr interpolationmode  sample-hold
attr title  "server busy state, timeavg"
scalar Net60.rte[0].queue[0] 	qlen:timeavg 	0
attr interpolationmode  sample-hold
attr title  "queue length, timeavg"
scalar Net60.rte[0].queue[0] 	qlen:max 	0
attr interpolationmode  sample-hold
attr title  "queue length, max"
scalar Net60.rte[0].queue[0] 	drop:count 	0
attr interpolationmode  none
attr title  "dropped packet byte length, count"
attr unit  bytes
scalar Net60.rte[0].queue[0] 	drop:sum 	0
attr interpolationmode  none
attr title  "dropped packet byte length, sum"
attr unit  bytes
scalar Net60.rte[1].app 	hopCount:mean 	-nan
attr interpolationmode  none
attr title  "hop count of arrived packets, mean"
scalar Net60.rte[1].app 	hopCount:max 	-nan
attr interpolationmode  none
attr title  "hop count of arrived packets, max"
scalar Net60.rte[1].app 	endToEndDelay:mean 	-nan
attr interpolationmode  none
attr title  "end-to-end delay of arrived packets, mean"
attr unit  s
scalar Net60.rte[1].app 	endToEndDelay:max 	-nan
attr interpolationmode  none
attr title  "end-to-end delay of arrived packets, max"
attr unit  s
statistic Net60.rte[1].routing 	outputIf:histogram
field count 0
field mean -nan
field stddev -nan
field sum 0
field sqrsum 0
field min -nan
field max -nan
attr interpolationmode  none
attr title  "output interface for each routed packet, histogram"
bin	-INF	0
bin	-0.5	0
bin	-0.46666666666667	0
bin	-0.43333333333333	0
bin	-0.4	0
bin	-0.36666666666667	0
bin	-0.33333333333333	0
bin	-0.3	0
bin	-0.26666666666667	0
bin	-0.23333333333333	0
bin	-0.2	0
bin	-0.16666666666667	0
bin	-0.13333333333333	0
bin	-0.1	0
bin	-0.066666666666667	0
bin	-0.033333333333333	0
bin	0	0
bin	0.033333333333333	0
bin	0.066666666666667	0
bin	0.1	0
bin	0.13333333333333	0
bin	0.16666666666667	0
bin	0.2	0
bin	0.23333333333333	0
bin	0.26666666666667	0
bin	0.3	0
bin	0.33333333333333	0
bin	0.36666666666667	0
bin	0.4	0
bin	0.43333333333333	0
bin	0.46666666666667	0
bin	0.5	0
scalar Net60.rte[1].routing 	drop:count 	0
attr interpolationmode  none
attr title  "dropped packet byte length, count"
attr unit  bytes
scalar Net60.rte[1].routing 	drop:sum 	0
attr interpolationmode  none
attr title  "dropped packet byte length, sum"
attr unit  bytes
scalar Net60.rte[1].queue[0] 	rxBytes:count 	0
attr interpolationmode  none
attr title  "received packet byte length, count"
attr unit  bytes
scalar Net60.rte[1].queue[0] 	rxBytes:sum 	0
attr interpolationmode  none
attr title  "received packet byte length, sum"
attr unit  bytes
statistic Net60.rte[1].queue[0] 	rxBytes:histogram
field count 0
field mean -nan
field stddev -nan
field sum 0
field sqrsum 0
field min -nan
field max -nan
attr interpolationmode  none
attr title  "received packet byte length, histogram"
attr unit  bytes
bin	-INF	0
bin	-0.5	0
bin	-0.46666666666667	0
bin	-0.43333333333333	0
bin	-0.4	0
bin	-0.36666666666667	0
bin	-0.33333333333333	0
bin	-0.3	0
bin	-0.26666666666667	0
bin	-0.23333333333333	0
bin	-0.2	0
bin	-0.16666666666667	0
bin	-0.13333333333333	0
bin	-0.1	0
bin	-0.066666666666667	0
bin	-0.033333333333333	0
bin	0	0
bin	0.033333333333333	0
bin	0.066666666666667	0
bin	0.1	0
bin	0.13333333333333	0
bin	0.16666666666667	0
bin	0.2	0
bin	0.23333333333333	0
bin	0.26666666666667	0
bin	0.3	0
bin	0.33333333333333	0
bin	0.36666666666667	0
bin	0.4	0
bin	0.43333333333333	0
bin	0.46666666666667	0
bin	0.5	0
scalar Net60.rte[1].queue[0] 	txBytes:count 	0
attr interpolationmode  none
attr title  "transmitting packet byte length, count"
attr unit  bytes
scalar Net60.rte[1].queue[0] 	txBytes:sum 	0
attr interpolationmode  none
attr title  "transmitting packet byte length, sum"
attr unit  bytes
statistic Net60.rte[1].queue[0] 	txBytes:histogram
field count 0
field mean -nan
field stddev -nan
field sum 0
field sqrsum 0
field min -nan
field max -nan
attr interpolationmode  none
attr title  "transmitting packet byte length, histogram"
attr unit  bytes
bin	-INF	0
bin	-0.5	0
bin	-0.46666666666667	0
bin	-0.43333333333333	0
bin	-0.4	0
bin	-0.36666666666667	0
bin	-0.33333333333333	0
bin	-0.3	0
bin	-0.26666666666667	0
bin	-0.23333333333333	0
bin	-0.2	0
bin	-0.16666666666667	0
bin	-0.13333333333333	0
bin	-0.1	0
bin	-0.066666666666667	0
bin	-0.033333333333333	0
bin	0	0
bin	0.033333333333333	0
bin	0.066666666666667	0
bin	0.1	0
bin	0.13333333333333	0
bin	0.16666666666667	0
bin	0.2	0
bin	0.23333333333333	0
bin	0.26666666666667	0
bin	0.3	0
bin	0.33333333333333	0
bin	0.36666666666667	0
bin	0.4	0
bin	0.43333333333333	0
bin	0.46666666666667	0
bin	0.5	0
scalar Net60.rte[1].queue[0] 	busy:timeavg 	0
attr interpolationmode  sample-hold
attr title  "server busy state, timeavg"
scalar Net60.rte[1].queue[0] 	qlen:timeavg 	0
attr interpolationmode  sample-hold
attr title  "queue length, timeavg"
scalar Net60.rte[1].queue[0] 	qlen:max 	0
attr interpolationmode  sample-hold
attr title  "queue length, max"
scalar Net60.rte[1].queue[0] 	drop:count 	0
attr interpolationmode  none
attr title  "dropped packet byte length, count"
attr unit  bytes
scalar Net60.rte[1].queue[0] 	drop:sum 	0
attr interpolationmode  none
attr title  "dropped packet byte length, sum"
attr unit  bytes
scalar Net60.rte[1].queue[1] 	rxBytes:count 	0
attr interpolationmode  none
attr title  "received packet byte length, count"
attr unit  bytes
scalar Net60.rte[1].queue[1] 	rxBytes:sum 	0
attr interpolationmode  none
attr title  "received packet byte length, sum"
attr unit  bytes
statistic Net60.rte[1].queue[1] 	rxBytes:histogram
field count 0
field mean -nan
field stddev -nan
field sum 0
field sqrsum 0
field min -nan
field max -nan
attr interpolationmode  none
attr title  "received packet byte length, histogram"
attr unit  bytes
bin	-INF	0
bin	-0.5	0
bin	-0.46666666666667	0
bin	-0.43333333333333	0
bin	-0.4	0
bin	-0.36666666666667	0
bin	-0.33333333333333	0
bin	-0.3	0
bin	-0.26666666666667	0
bin	-0.23333333333333	0
bin	-0.2	0
bin	-0.16666666666667	0
bin	-0.13333333333333	0
bin	-0.1	0
bin	-0.066666666666667	0
bin	-0.033333333333333	0
bin	0	0
bin	0.033333333333333	0
bin	0.066666666666667	0
bin	0.1	0
bin	0.13333333333333	0
bin	0.16666666666667	0
bin	0.2	0
bin	0.23333333333333	0
bin	0.26666666666667	0
bin	0.3	0
bin	0.33333333333333	0
bin	0.36666666666667	0
bin	0.4	0
bin	0.43333333333333	0
bin	0.46666666666667	0
bin	0.5	0
scalar Net60.rte[1].queue[1] 	txBytes:count 	0
attr interpolationmode  none
attr title  "transmitting packet byte length, count"
attr unit  bytes
scalar Net60.rte[1].queue[1] 	txBytes:sum 	0
attr interpolationmode  none
attr title  "transmitting packet byte length, sum"
attr unit  bytes
statistic Net60.rte[1].queue[1] 	txBytes:histogram
field count 0
field mean -nan
field stddev -nan
field sum 0
field sqrsum 0
field min -nan
field max -nan
attr interpolationmode  none
attr title  "transmitting packet byte length, histogram"
attr unit  bytes
bin	-INF	0
bin	-0.5	0
bin	-0.46666666666667	0
bin	-0.43333333333333	0
bin	-0.4	0
bin	-0.36666666666667	0
bin	-0.33333333333333	0
bin	-0.3	0
bin	-0.26666666666667	0
bin	-0.23333333333333	0
bin	-0.2	0
bin	-0.16666666666667	0
bin	-0.13333333333333	0
bin	-0.1	0
bin	-0.066666666666667	0
bin	-0.033333333333333	0
bin	0	0
bin	0.033333333333333	0
bin	0.066666666666667	0
bin	0.1	0
bin	0.13333333333333	0
bin	0.16666666666667	0
bin	0.2	0
bin	0.23333333333333	0
bin	0.26666666666667	0
bin	0.3	0
bin	0.33333333333333	0
bin	0.36666666666667	0
bin	0.4	0
bin	0.43333333333333	0
bin	0.46666666666667	0
bin	0.5	0
scalar Net60.rte[1].queue[1] 	busy:timeavg 	0
attr interpolationmode  sample-hold
attr title  "server busy state, timeavg"
scalar Net60.rte[1].queue[1] 	qlen:timeavg 	0
attr interpolationmode  sample-hold
attr title  "queue length, timeavg"
scalar Net60.rte[1].queue[1] 	qlen:max 	0
attr interpolationmode  sample-hold
attr title  "queue length, max"
scalar Net60.rte[1].queue[1] 	drop:count 	0
attr interpolationmode  none
attr title  "dropped packet byte length, count"
attr unit  bytes
scalar Net60.rte[1].queue[1] 	drop:sum 	0
attr interpolationmode  none
attr title  "dropped packet byte length, sum"
attr unit  bytes
scalar Net60.rte[1].queue[2] 	rxBytes:count 	0
attr interpolationmode  none
attr title  "received packet byte length, count"
attr unit  bytes
scalar Net60.rte[1].queue[2] 	rxBytes:sum 	0
attr interpolationmode  none
attr title  "received packet byte length, sum"
attr unit  bytes
statistic Net60.rte[1].queue[2] 	rxBytes:histogram
field count 0
field mean -nan
field stddev -nan
field sum 0
field sqrsum 0
field min -nan
field max -nan
attr interpolationmode  none
attr title  "received packet byte length, histogram"
attr unit  bytes
bin	-INF	0
bin	-0.5	0
bin	-0.46666666666667	0
bin	-0.43333333333333	0
bin	-0.4	0
bin	-0.36666666666667	0
bin	-0.33333333333333	0
bin	-0.3	0
bin	-0.26666666666667	0
bin	-0.23333333333333	0
bin	-0.2	0
bin	-0.16666666666667	0
bin	-0.13333333333333	0
bin	-0.1	0
bin	-0.066666666666667	0
bin	-0.033333333333333	0
bin	0	0
bin	0.033333333333333	0
bin	0.066666666666667	0
bin	0.1	0
bin	0.13333333333333	0
bin	0.16666666666667	0
bin	0.2	0
bin	0.23333333333333	0
bin	0.26666666666667	0
bin	0.3	0
bin	0.33333333333333	0
bin	0.36666666666667	0
bin	0.4	0
bin	0.43333333333333	0
bin	0.46666666666667	0
bin	0.5	0
scalar Net60.rte[1].queue[2] 	txBytes:count 	0
attr interpolationmode  none
attr title  "transmitting packet byte length, count"
attr unit  bytes
scalar Net60.rte[1].queue[2] 	txBytes:sum 	0
attr interpolationmode  none
attr title  "transmitting packet byte length, sum"
attr unit  bytes
statistic Net60.rte[1].queue[2] 	txBytes:histogram
field count 0
field mean -nan
field stddev -nan
field sum 0
field sqrsum 0
field min -nan
field max -nan
attr interpolationmode  none
attr title  "transmitting packet byte length, histogram"
attr unit  bytes
bin	-INF	0
bin	-0.5	0
bin	-0.46666666666667	0
bin	-0.43333333333333	0
bin	-0.4	0
bin	-0.36666666666667	0
bin	-0.33333333333333	0
bin	-0.3	0
bin	-0.26666666666667	0
bin	-0.23333333333333	0
bin	-0.2	0
bin	-0.16666666666667	0
bin	-0.13333333333333	0
bin	-0.1	0
bin	-0.066666666666667	0
bin	-0.033333333333333	0
bin	0	0
bin	0.033333333333333	0
bin	0.066666666666667	0
bin	0.1	0
bin	0.13333333333333	0
bin	0.16666666666667	0
bin	0.2	0
bin	0.23333333333333	0
bin	0.26666666666667	0
bin	0.3	0
bin	0.33333333333333	0
bin	0.36666666666667	0
bin	0.4	0
bin	0.43333333333333	0
bin	0.46666666666667	0
bin	0.5	0
scalar Net60.rte[1].queue[2] 	busy:timeavg 	0
attr interpolationmode  sample-hold
attr title  "server busy state, timeavg"
scalar Net60.rte[1].queue[2] 	qlen:timeavg 	0
attr interpolationmode  sample-hold
attr title  "queue length, timeavg"
scalar Net60.rte[1].queue[2] 	qlen:max 	0
attr interpolationmode  sample-hold
attr title  "queue length, max"
scalar Net60.rte[1].queue[2] 	drop:count 	0
attr interpolationmode  none
attr title  "dropped packet byte length, count"
attr unit  bytes
scalar Net60.rte[1].queue[2] 	drop:sum 	0
attr interpolationmode  none
attr title  "dropped packet byte length, sum"
attr unit  bytes
scalar Net60.rte[2].app 	hopCount:mean 	-nan
attr interpolationmode  none
attr title  "hop count of arrived packets, mean"
scalar Net60.rte[2].app 	hopCount:max 	-nan
attr interpolationmode  none
attr title  "hop count of arrived packets, max"
scalar Net60.rte[2].app 	endToEndDelay:mean 	-nan
attr interpolationmode  none
attr title  "end-to-end delay of arrived packets, mean"
attr unit  s
scalar Net60.rte[2].app 	endToEndDelay:max 	-nan
attr interpolationmode  none
attr title  "end-to-end delay of arrived packets, max"
attr unit  s
statistic Net60.rte[2].routing 	outputIf:histogram
field count 0
field mean -nan
field stddev -nan
field sum 0
field sqrsum 0
field min -nan
field max -nan
attr interpolationmode  none
attr title  "output interface for each routed packet, histogram"
bin	-INF	0
bin	-0.5	0
bin	-0.46666666666667	0
bin	-0.43333333333333	0
bin	-0.4	0
bin	-0.36666666666667	0
bin	-0.33333333333333	0
bin	-0.3	0
bin	-0.26666666666667	0
bin	-0.23333333333333	0
bin	-0.2	0
bin	-0.16666666666667	0
bin	-0.13333333333333	0
bin	-0.1	0
bin	-0.066666666666667	0
bin	-0.033333333333333	0
bin	0	0
bin	0.033333333333333	0
bin	0.066666666666667	0
bin	0.1	0
bin	0.13333333333333	0
bin	0.16666666666667	0
bin	0.2	0
bin	0.23333333333333	0
bin	0.26666666666667	0
bin	0.3	0
bin	0.33333333333333	0
bin	0.36666666666667	0
bin	0.4	0
bin	0.43333333333333	0
bin	0.46666666666667	0
bin	0.5	0
scalar Net60.rte[2].routing 	drop:count 	0
attr interpolationmode  none
attr title  "dropped packet byte length, count"
attr unit  bytes
scalar Net60.rte[2].routing 	drop:sum 	0
attr interpolationmode  none
attr title  "dropped packet byte length, sum"
attr unit  bytes
scalar Net60.rte[2].queue[0] 	rxBytes:count 	0
attr interpolationmode  none
attr title  "received packet byte length, count"
attr unit  bytes
scalar Net60.rte[2].queue[0] 	rxBytes:sum 	0
attr interpolationmode  none
attr title  "received packet byte length, sum"
attr unit  bytes
statistic Net60.rte[2].queue[0] 	rxBytes:histogram
field count 0
field mean -nan
field stddev -nan
field sum 0
field sqrsum 0
field min -nan
field max -nan
attr interpolationmode  none
attr title  "received packet byte length, histogram"
attr unit  bytes
bin	-INF	0
bin	-0.5	0
bin	-0.46666666666667	0
bin	-0.43333333333333	0
bin	-0.4	0
bin	-0.36666666666667	0
bin	-0.33333333333333	0
bin	-0.3	0
bin	-0.26666666666667	0
bin	-0.23333333333333	0
bin	-0.2	0
bin	-0.16666666666667	0
bin	-0.13333333333333	0
bin	-0.1	0
bin	-0.066666666666667	0
bin	-0.033333333333333	0
bin	0	0
bin	0.033333333333333	0
bin	0.066666666666667	0
bin	0.1	0
bin	0.13333333333333	0
bin	0.16666666666667	0
bin	0.2	0
bin	0.23333333333333	0
bin	0.26666666666667	0
bin	0.3	0
bin	0.33333333333333	0
bin	0.36666666666667	0
bin	0.4	0
bin	0.43333333333333	0
bin	0.46666666666667	0
bin	0.5	0
scalar Net60.rte[2].queue[0] 	txBytes:count 	0
attr interpolationmode  none
attr title  "transmitting packet byte length, count"
attr unit  bytes
scalar Net60.rte[2].queue[0] 	txBytes:sum 	0
attr interpolationmode  none
attr title  "transmitting packet byte length, sum"
attr unit  bytes
statistic Net60.rte[2].queue[0] 	txBytes:histogram
field count 0
field mean -nan
field stddev -nan
field sum 0
field sqrsum 0
field min -nan
field max -nan
attr interpolationmode  none
attr title  "transmitting packet byte length, histogram"
attr unit  bytes
bin	-INF	0
bin	-0.5	0
bin	-0.46666666666667	0
bin	-0.43333333333333	0
bin	-0.4	0
bin	-0.36666666666667	0
bin	-0.33333333333333	0
bin	-0.3	0
bin	-0.26666666666667	0
bin	-0.23333333333333	0
bin	-0.2	0
bin	-0.16666666666667	0
bin	-0.13333333333333	0
bin	-0.1	0
bin	-0.066666666666667	0
bin	-0.033333333333333	0
bin	0	0
bin	0.033333333333333	0
bin	0.066666666666667	0
bin	0.1	0
bin	0.13333333333333	0
bin	0.16666666666667	0
bin	0.2	0
bin	0.23333333333333	0
bin	0.26666666666667	0
bin	0.3	0
bin	0.33333333333333	0
bin	0.36666666666667	0
bin	0.4	0
bin	0.43333333333333	0
bin	0.46666666666667	0
bin	0.5	0
scalar Net60.rte[2].queue[0] 	busy:timeavg 	0
attr interpolationmode  sample-hold
attr title  "server busy state, timeavg"
scalar Net60.rte[2].queue[0] 	qlen:timeavg 	0
attr interpolationmode  sample-hold
attr title  "queue length, timeavg"
scalar Net60.rte[2].queue[0] 	qlen:max 	0
attr interpolationmode  sample-hold
attr title  "queue length, max"
scalar Net60.rte[2].queue[0] 	drop:count 	0
attr interpolationmode  none
attr title  "dropped packet byte length, count"
attr unit  bytes
scalar Net60.rte[2].queue[0] 	drop:sum 	0
attr interpolationmode  none
attr title  "dropped packet byte length, sum"
attr unit  bytes
scalar Net60.rte[3].app 	hopCount:mean 	-nan
attr interpolationmode  none
attr title  "hop count of arrived packets, mean"
scalar Net60.rte[3].app 	hopCount:max 	-nan
attr interpolationmode  none
attr title  "hop count of arrived packets, max"
scalar Net60.rte[3].app 	endToEndDelay:mean 	-nan
attr interpolationmode  none
attr title  "end-to-end delay of arrived packets, mean"
attr unit  s
scalar Net60.rte[3].app 	endToEndDelay:max 	-nan
attr interpolationmode  none
attr title  "end-to-end delay of arrived packets, max"
attr unit  s
statistic Net60.rte[3].routing 	outputIf:histogram
field count 0
field mean -nan
field stddev -nan
field sum 0
field sqrsum 0
field min -nan
field max -nan
attr interpolationmode  none
attr title  "output interface for each routed packet, histogram"
bin	-INF	0
bin	-0.5	0
bin	-0.46666666666667	0
bin	-0.43333333333333	0
bin	-0.4	0
bin	-0.36666666666667	0
bin	-0.33333333333333	0
bin	-0.3	0
bin	-0.26666666666667	0
bin	-0.23333333333333	0
bin	-0.2	0
bin	-0.16666666666667	0
bin	-0.13333333333333	0
bin	-0.1	0
bin	-0.066666666666667	0
bin	-0.033333333333333	0
bin	0	0
bin	0.033333333333333	0
bin	0.066666666666667	0
bin	0.1	0
bin	0.13333333333333	0
bin	0.16666666666667	0
bin	0.2	0
bin	0.23333333333333	0
bin	0.26666666666667	0
bin	0.3	0
bin	0.33333333333333	0
bin	0.36666666666667	0
bin	0.4	0
bin	0.43333333333333	0
bin	0.46666666666667	0
bin	0.5	0
scalar Net60.rte[3].routing 	drop:count 	0
attr interpolationmode  none
attr title  "dropped packet byte length, count"
attr unit  bytes
scalar Net60.rte[3].routing 	drop:sum 	0
attr interpolationmode  none
attr title  "dropped packet byte length, sum"
attr unit  bytes
scalar Net60.rte[3].queue[0] 	rxBytes:count 	0
attr interpolationmode  none
attr title  "received packet byte length, count"
attr unit  bytes
scalar Net60.rte[3].queue[0] 	rxBytes:sum 	0
attr interpolationmode  none
attr title  "received packet byte length, sum"
attr unit  bytes
statistic Net60.rte[3].queue[0] 	rxBytes:histogram
field count 0
field mean -nan
field stddev -nan
field sum 0
field sqrsum 0
field min -nan
field max -nan
attr interpolationmode  none
attr title  "received packet byte length, histogram"
attr unit  bytes
bin	-INF	0
bin	-0.5	0
bin	-0.46666666666667	0
bin	-0.43333333333333	0
bin	-0.4	0
bin	-0.36666666666667	0
bin	-0.33333333333333	0
bin	-0.3	0
bin	-0.26666666666667	0
bin	-0.23333333333333	0
bin	-0.2	0
bin	-0.16666666666667	0
bin	-0.13333333333333	0
bin	-0.1	0
bin	-0.066666666666667	0
bin	-0.033333333333333	0
bin	0	0
bin	0.033333333333333	0
bin	0.066666666666667	0
bin	0.1	0
bin	0.13333333333333	0
bin	0.16666666666667	0
bin	0.2	0
bin	0.23333333333333	0
bin	0.26666666666667	0
bin	0.3	0
bin	0.33333333333333	0
bin	0.36666666666667	0
bin	0.4	0
bin	0.43333333333333	0
bin	0.46666666666667	0
bin	0.5	0
scalar Net60.rte[3].queue[0] 	txBytes:count 	0
attr interpolationmode  none
attr title  "transmitting packet byte length, count"
attr unit  bytes
scalar Net60.rte[3].queue[0] 	txBytes:sum 	0
attr interpolationmode  none
attr title  "transmitting packet byte length, sum"
attr unit  bytes
statistic Net60.rte[3].queue[0] 	txBytes:histogram
field count 0
field mean -nan
field stddev -nan
field sum 0
field sqrsum 0
field min -nan
field max -nan
attr interpolationmode  none
attr title  "transmitting packet byte length, histogram"
attr unit  bytes
bin	-INF	0
bin	-0.5	0
bin	-0.46666666666667	0
bin	-0.43333333333333	0
bin	-0.4	0
bin	-0.36666666666667	0
bin	-0.33333333333333	0
bin	-0.3	0
bin	-0.26666666666667	0
bin	-0.23333333333333	0
bin	-0.2	0
bin	-0.16666666666667	0
bin	-0.13333333333333	0
bin	-0.1	0
bin	-0.066666666666667	0
bin	-0.033333333333333	0
bin	0	0
bin	0.033333333333333	0
bin	0.066666666666667	0
bin	0.1	0
bin	0.13333333333333	0
bin	0.16666666666667	0
bin	0.2	0
bin	0.23333333333333	0
bin	0.26666666666667	0
bin	0.3	0
bin	0.33333333333333	0
bin	0.36666666666667	0
bin	0.4	0
bin	0.43333333333333	0
bin	0.46666666666667	0
bin	0.5	0
scalar Net60.rte[3].queue[0] 	busy:timeavg 	0
attr interpolationmode  sample-hold
attr title  "server busy state, timeavg"
scalar Net60.rte[3].queue[0] 	qlen:timeavg 	0
attr interpolationmode  sample-hold
attr title  "queue length, timeavg"
scalar Net60.rte[3].queue[0] 	qlen:max 	0
attr interpolationmode  sample-hold
attr title  "queue length, max"
scalar Net60.rte[3].queue[0] 	drop:count 	0
attr interpolationmode  none
attr title  "dropped packet byte length, count"
attr unit  bytes
scalar Net60.rte[3].queue[0] 	drop:sum 	0
attr interpolationmode  none
attr title  "dropped packet byte length, sum"
attr unit  bytes
scalar Net60.rte[4].app 	hopCount:mean 	-nan
attr interpolationmode  none
attr title  "hop count of arrived packets, mean"
scalar Net60.rte[4].app 	hopCount:max 	-nan
attr interpolationmode  none
attr title  "hop count of arrived packets, max"
scalar Net60.rte[4].app 	endToEndDelay:mean 	-nan
attr interpolationmode  none
attr title  "end-to-end delay of arrived packets, mean"
attr unit  s
scalar Net60.rte[4].app 	endToEndDelay:max 	-nan
attr interpolationmode  none
attr title  "end-to-end delay of arrived packets, max"
attr unit  s
statistic Net60.rte[4].routing 	outputIf:histogram
field count 1
field mean 0
field stddev -nan
field sum 0
field sqrsum 0
field min 0
field max 0
attr interpolationmode  none
attr title  "output interface for each routed packet, histogram"
bin	-INF	0
bin	-0.5	0
bin	-0.46666666666667	0
bin	-0.43333333333333	0
bin	-0.4	0
bin	-0.36666666666667	0
bin	-0.33333333333333	0
bin	-0.3	0
bin	-0.26666666666667	0
bin	-0.23333333333333	0
bin	-0.2	0
bin	-0.16666666666667	0
bin	-0.13333333333333	0
bin	-0.1	0
bin	-0.066666666666667	0
bin	-0.033333333333333	0
bin	0	1
bin	0.033333333333333	0
bin	0.066666666666667	0
bin	0.1	0
bin	0.13333333333333	0
bin	0.16666666666667	0
bin	0.2	0
bin	0.23333333333333	0
bin	0.26666666666667	0
bin	0.3	0
bin	0.33333333333333	0
bin	0.36666666666667	0
bin	0.4	0
bin	0.43333333333333	0
bin	0.46666666666667	0
bin	0.5	0
scalar Net60.rte[4].routing 	drop:count 	0
attr interpolationmode  none
attr title  "dropped packet byte length, count"
attr unit  bytes
scalar Net60.rte[4].routing 	drop:sum 	0
attr interpolationmode  none
attr title  "dropped packet byte length, sum"
attr unit  bytes
scalar Net60.rte[4].queue[0] 	rxBytes:count 	0
attr interpolationmode  none
attr title  "received packet byte length, count"
attr unit  bytes
scalar Net60.rte[4].queue[0] 	rxBytes:sum 	0
attr interpolationmode  none
attr title  "received packet byte length, sum"
attr unit  bytes
statistic Net60.rte[4].queue[0] 	rxBytes:histogram
field count 0
field mean -nan
field stddev -nan
field sum 0
field sqrsum 0
field min -nan
field max -nan
attr interpolationmode  none
attr title  "received packet byte length, histogram"
attr unit  bytes
bin	-INF	0
bin	-0.5	0
bin	-0.46666666666667	0
bin	-0.43333333333333	0
bin	-0.4	0
bin	-0.36666666666667	0
bin	-0.33333333333333	0
bin	-0.3	0
bin	-0.26666666666667	0
bin	-0.23333333333333	0
bin	-0.2	0
bin	-0.16666666666667	0
bin	-0.13333333333333	0
bin	-0.1	0
bin	-0.066666666666667	0
bin	-0.033333333333333	0
bin	0	0
bin	0.033333333333333	0
bin	0.066666666666667	0
bin	0.1	0
bin	0.13333333333333	0
bin	0.16666666666667	0
bin	0.2	0
bin	0.23333333333333	0
bin	0.26666666666667	0
bin	0.3	0
bin	0.33333333333333	0
bin	0.36666666666667	0
bin	0.4	0
bin	0.43333333333333	0
bin	0.46666666666667	0
bin	0.5	0
scalar Net60.rte[4].queue[0] 	txBytes:count 	1
attr interpolationmode  none
attr title  "transmitting packet byte length, count"
attr unit  bytes
scalar Net60.rte[4].queue[0] 	txBytes:sum 	32768
attr interpolationmode  none
attr title  "transmitting packet byte length, sum"
attr unit  bytes
statistic Net60.rte[4].queue[0] 	txBytes:histogram
field count 1
field mean 32768
field stddev -nan
field sum 32768
field sqrsum 1073741824
field min 32768
field max 32768
attr interpolationmode  none
attr title  "transmitting packet byte length, histogram"
attr unit  bytes
bin	-INF	0
bin	32767	0
bin	32768	1
bin	32769	0
scalar Net60.rte[4].queue[0] 	busy:timeavg 	0.036593434153126
attr interpolationmode  sample-hold
attr title  "server busy state, timeavg"
scalar Net60.rte[4].queue[0] 	qlen:timeavg 	0
attr interpolationmode  sample-hold
attr title  "queue length, timeavg"
scalar Net60.rte[4].queue[0] 	qlen:max 	0
attr interpolationmode  sample-hold
attr title  "queue length, max"
scalar Net60.rte[4].queue[0] 	drop:count 	0
attr interpolationmode  none
attr title  "dropped packet byte length, count"
attr unit  bytes
scalar Net60.rte[4].queue[0] 	drop:sum 	0
attr interpolationmode  none
attr title  "dropped packet byte length, sum"
attr unit  bytes
scalar Net60.rte[4].queue[1] 	rxBytes:count 	0
attr interpolationmode  none
attr title  "received packet byte length, count"
attr unit  bytes
scalar Net60.rte[4].queue[1] 	rxBytes:sum 	0
attr interpolationmode  none
attr title  "received packet byte length, sum"
attr unit  bytes
statistic Net60.rte[4].queue[1] 	rxBytes:histogram
field count 0
field mean -nan
field stddev -nan
field sum 0
field sqrsum 0
field min -nan
field max -nan
attr interpolationmode  none
attr title  "received packet byte length, histogram"
attr unit  bytes
bin	-INF	0
bin	-0.5	0
bin	-0.46666666666667	0
bin	-0.43333333333333	0
bin	-0.4	0
bin	-0.36666666666667	0
bin	-0.33333333333333	0
bin	-0.3	0
bin	-0.26666666666667	0
bin	-0.23333333333333	0
bin	-0.2	0
bin	-0.16666666666667	0
bin	-0.13333333333333	0
bin	-0.1	0
bin	-0.066666666666667	0
bin	-0.033333333333333	0
bin	0	0
bin	0.033333333333333	0
bin	0.066666666666667	0
bin	0.1	0
bin	0.13333333333333	0
bin	0.16666666666667	0
bin	0.2	0
bin	0.23333333333333	0
bin	0.26666666666667	0
bin	0.3	0
bin	0.33333333333333	0
bin	0.36666666666667	0
bin	0.4	0
bin	0.43333333333333	0
bin	0.46666666666667	0
bin	0.5	0
scalar Net60.rte[4].queue[1] 	txBytes:count 	0
attr interpolationmode  none
attr title  "transmitting packet byte length, count"
attr unit  bytes
scalar Net60.rte[4].queue[1] 	txBytes:sum 	0
attr interpolationmode  none
attr title  "transmitting packet byte length, sum"
attr unit  bytes
statistic Net60.rte[4].queue[1] 	txBytes:histogram
field count 0
field mean -nan
field stddev -nan
field sum 0
field sqrsum 0
field min -nan
field max -nan
attr interpolationmode  none
attr title  "transmitting packet byte length, histogram"
attr unit  bytes
bin	-INF	0
bin	-0.5	0
bin	-0.46666666666667	0
bin	-0.43333333333333	0
bin	-0.4	0
bin	-0.36666666666667	0
bin	-0.33333333333333	0
bin	-0.3	0
bin	-0.26666666666667	0
bin	-0.23333333333333	0
bin	-0.2	0
bin	-0.16666666666667	0
bin	-0.13333333333333	0
bin	-0.1	0
bin	-0.066666666666667	0
bin	-0.033333333333333	0
bin	0	0
bin	0.033333333333333	0
bin	0.066666666666667	0
bin	0.1	0
bin	0.13333333333333	0
bin	0.16666666666667	0
bin	0.2	0
bin	0.23333333333333	0
bin	0.26666666666667	0
bin	0.3	0
bin	0.33333333333333	0
bin	0.36666666666667	0
bin	0.4	0
bin	0.43333333333333	0
bin	0.46666666666667	0
bin	0.5	0
scalar Net60.rte[4].queue[1] 	busy:timeavg 	0
attr interpolationmode  sample-hold
attr title  "server busy state, timeavg"
scalar Net60.rte[4].queue[1] 	qlen:timeavg 	0
attr interpolationmode  sample-hold
attr title  "queue length, timeavg"
scalar Net60.rte[4].queue[1] 	qlen:max 	0
attr interpolationmode  sample-hold
attr title  "queue length, max"
scalar Net60.rte[4].queue[1] 	drop:count 	0
attr interpolationmode  none
attr title  "dropped packet byte length, count"
attr unit  bytes
scalar Net60.rte[4].queue[1] 	drop:sum 	0
attr interpolationmode  none
attr title  "dropped packet byte length, sum"
attr unit  bytes
scalar Net60.rte[4].queue[2] 	rxBytes:count 	1
attr interpolationmode  none
attr title  "received packet byte length, count"
attr unit  bytes
scalar Net60.rte[4].queue[2] 	rxBytes:sum 	32768
attr interpolationmode  none
attr title  "received packet byte length, sum"
attr unit  bytes
statistic Net60.rte[4].queue[2] 	rxBytes:histogram
field count 1
field mean 32768
field stddev -nan
field sum 32768
field sqrsum 1073741824
field min 32768
field max 32768
attr interpolationmode  none
attr title  "received packet byte length, histogram"
attr unit  bytes
bin	-INF	0
bin	32767	0
bin	32768	1
bin	32769	0
scalar Net60.rte[4].queue[2] 	txBytes:count 	0
attr interpolationmode  none
attr title  "transmitting packet byte length, count"
attr unit  bytes
scalar Net60.rte[4].queue[2] 	txBytes:sum 	0
attr interpolationmode  none
attr title  "transmitting packet byte length, sum"
attr unit  bytes
statistic Net60.rte[4].queue[2] 	txBytes:histogram
field count 0
field mean -nan
field stddev -nan
field sum 0
field sqrsum 0
field min -nan
field max -nan
attr interpolationmode  none
attr title  "transmitting packet byte length, histogram"
attr unit  bytes
bin	-INF	0
bin	-0.5	0
bin	-0.46666666666667	0
bin	-0.43333333333333	0
bin	-0.4	0
bin	-0.36666666666667	0
bin	-0.33333333333333	0
bin	-0.3	0
bin	-0.26666666666667	0
bin	-0.23333333333333	0
bin	-0.2	0
bin	-0.16666666666667	0
bin	-0.13333333333333	0
bin	-0.1	0
bin	-0.066666666666667	0
bin	-0.033333333333333	0
bin	0	0
bin	0.033333333333333	0
bin	0.066666666666667	0
bin	0.1	0
bin	0.13333333333333	0
bin	0.16666666666667	0
bin	0.2	0
bin	0.23333333333333	0
bin	0.26666666666667	0
bin	0.3	0
bin	0.33333333333333	0
bin	0.36666666666667	0
bin	0.4	0
bin	0.43333333333333	0
bin	0.46666666666667	0
bin	0.5	0
scalar Net60.rte[4].queue[2] 	busy:timeavg 	0
attr interpolationmode  sample-hold
attr title  "server busy state, timeavg"
scalar Net60.rte[4].queue[2] 	qlen:timeavg 	0
attr interpolationmode  sample-hold
attr title  "queue length, timeavg"
scalar Net60.rte[4].queue[2] 	qlen:max 	0
attr interpolationmode  sample-hold
attr title  "queue length, max"
scalar Net60.rte[4].queue[2] 	drop:count 	0
attr interpolationmode  none
attr title  "dropped packet byte length, count"
attr unit  bytes
scalar Net60.rte[4].queue[2] 	drop:sum 	0
attr interpolationmode  none
attr title  "dropped packet byte length, sum"
attr unit  bytes
scalar Net60.rte[4].queue[3] 	rxBytes:count 	0
attr interpolationmode  none
attr title  "received packet byte length, count"
attr unit  bytes
scalar Net60.rte[4].queue[3] 	rxBytes:sum 	0
attr interpolationmode  none
attr title  "received packet byte length, sum"
attr unit  bytes
statistic Net60.rte[4].queue[3] 	rxBytes:histogram
field count 0
field mean -nan
field stddev -nan
field sum 0
field sqrsum 0
field min -nan
field max -nan
attr interpolationmode  none
attr title  "received packet byte length, histogram"
attr unit  bytes
bin	-INF	0
bin	-0.5	0
bin	-0.46666666666667	0
bin	-0.43333333333333	0
bin	-0.4	0
bin	-0.36666666666667	0
bin	-0.33333333333333	0
bin	-0.3	0
bin	-0.26666666666667	0
bin	-0.23333333333333	0
bin	-0.2	0
bin	-0.16666666666667	0
bin	-0.13333333333333	0
bin	-0.1	0
bin	-0.066666666666667	0
bin	-0.033333333333333	0
bin	0	0
bin	0.033333333333333	0
bin	0.066666666666667	0
bin	0.1	0
bin	0.13333333333333	0
bin	0.16666666666667	0
bin	0.2	0
bin	0.23333333333333	0
bin	0.26666666666667	0
bin	0.3	0
bin	0.33333333333333	0
bin	0.36666666666667	0
bin	0.4	0
bin	0.43333333333333	0
bin	0.46666666666667	0
bin	0.5	0
scalar Net60.rte[4].queue[3] 	txBytes:count 	0
attr interpolationmode  none
attr title  "transmitting packet byte length, count"
attr unit  bytes
scalar Net60.rte[4].queue[3] 	txBytes:sum 	0
attr interpolationmode  none
attr title  "transmitting packet byte length, sum"
attr unit  bytes
statistic Net60.rte[4].queue[3] 	txBytes:histogram
field count 0
field mean -nan
field stddev -nan
field sum 0
field sqrsum 0
field min -nan
field max -nan
attr interpolationmode  none
attr title  "transmitting packet byte length, histogram"
attr unit  bytes
bin	-INF	0
bin	-0.5	0
bin	-0.46666666666667	0
bin	-0.43333333333333	0
bin	-0.4	0
bin	-0.36666666666667	0
bin	-0.33333333333333	0
bin	-0.3	0
bin	-0.26666666666667	0
bin	-0.23333333333333	0
bin	-0.2	0
bin	-0.16666666666667	0
bin	-0.13333333333333	0
bin	-0.1	0
bin	-0.066666666666667	0
bin	-0.033333333333333	0
bin	0	0
bin	0.033333333333333	0
bin	0.066666666666667	0
bin	0.1	0
bin	0.13333333333333	0
bin	0.16666666666667	0
bin	0.2	0
bin	0.23333333333333	0
bin	0.26666666666667	0
bin	0.3	0
bin	0.33333333333333	0
bin	0.36666666666667	0
bin	0.4	0
bin	0.43333333333333	0
bin	0.46666666666667	0
bin	0.5	0
scalar Net60.rte[4].queue[3] 	busy:timeavg 	0
attr interpolationmode  sample-hold
attr title  "server busy state, timeavg"
scalar Net60.rte[4].queue[3] 	qlen:timeavg 	0
attr interpolationmode  sample-hold
attr title  "queue length, timeavg"
scalar Net60.rte[4].queue[3] 	qlen:max 	0
attr interpolationmode  sample-hold
attr title  "queue length, max"
scalar Net60.rte[4].queue[3] 	drop:count 	0
attr interpolationmode  none
attr title  "dropped packet byte length, count"
attr unit  bytes
scalar Net60.rte[4].queue[3] 	drop:sum 	0
attr interpolationmode  none
attr title  "dropped packet byte length, sum"
attr unit  bytes
scalar Net60.rte[5].app 	hopCount:mean 	-nan
attr interpolationmode  none
attr title  "hop count of arrived packets, mean"
scalar Net60.rte[5].app 	hopCount:max 	-nan
attr interpolationmode  none
attr title  "hop count of arrived packets, max"
scalar Net60.rte[5].app 	endToEndDelay:mean 	-nan
attr interpolationmode  none
attr title  "end-to-end delay of arrived packets, mean"
attr unit  s
scalar Net60.rte[5].app 	endToEndDelay:max 	-nan
attr interpolationmode  none
attr title  "end-to-end delay of arrived packets, max"
attr unit  s
statistic Net60.rte[5].routing 	outputIf:histogram
field count 1
field mean 0
field stddev -nan
field sum 0
field sqrsum 0
field min 0
field max 0
attr interpolationmode  none
attr title  "output interface for each routed packet, histogram"
bin	-INF	0
bin	-0.5	0
bin	-0.46666666666667	0
bin	-0.43333333333333	0
bin	-0.4	0
bin	-0.36666666666667	0
bin	-0.33333333333333	0
bin	-0.3	0
bin	-0.26666666666667	0
bin	-0.23333333333333	0
bin	-0.2	0
bin	-0.16666666666667	0
bin	-0.13333333333333	0
bin	-0.1	0
bin	-0.066666666666667	0
bin	-0.033333333333333	0
bin	0	1
bin	0.033333333333333	0
bin	0.066666666666667	0
bin	0.1	0
bin	0.13333333333333	0
bin	0.16666666666667	0
bin	0.2	0
bin	0.23333333333333	0
bin	0.26666666666667	0
bin	0.3	0
bin	0.33333333333333	0
bin	0.36666666666667	0
bin	0.4	0
bin	0.43333333333333	0
bin	0.46666666666667	0
bin	0.5	0
scalar Net60.rte[5].routing 	drop:count 	0
attr interpolationmode  none
attr title  "dropped packet byte length, count"
attr unit  bytes
scalar Net60.rte[5].routing 	drop:sum 	0
attr interpolationmode  none
attr title  "dropped packet byte length, sum"
attr unit  bytes
scalar Net60.rte[5].queue[0] 	rxBytes:count 	0
attr interpolationmode  none
attr title  "received packet byte length, count"
attr unit  bytes
scalar Net60.rte[5].queue[0] 	rxBytes:sum 	0
attr interpolationmode  none
attr title  "received packet byte length, sum"
attr unit  bytes
statistic Net60.rte[5].queue[0] 	rxBytes:histogram
field count 0
field mean -nan
field stddev -nan
field sum 0
field sqrsum 0
field min -nan
field max -nan
attr interpolationmode  none
attr title  "received packet byte length, histogram"
attr unit  bytes
bin	-INF	0
bin	-0.5	0
bin	-0.46666666666667	0
bin	-0.43333333333333	0
bin	-0.4	0
bin	-0.36666666666667	0
bin	-0.33333333333333	0
bin	-0.3	0
bin	-0.26666666666667	0
bin	-0.23333333333333	0
bin	-0.2	0
bin	-0.16666666666667	0
bin	-0.13333333333333	0
bin	-0.1	0
bin	-0.066666666666667	0
bin	-0.033333333333333	0
bin	0	0
bin	0.033333333333333	0
bin	0.066666666666667	0
bin	0.1	0
bin	0.13333333333333	0
bin	0.16666666666667	0
bin	0.2	0
bin	0.23333333333333	0
bin	0.26666666666667	0
bin	0.3	0
bin	0.33333333333333	0
bin	0.36666666666667	0
bin	0.4	0
bin	0.43333333333333	0
bin	0.46666666666667	0
bin	0.5	0
scalar Net60.rte[5].queue[0] 	txBytes:count 	1
attr interpolationmode  none
attr title  "transmitting packet byte length, count"
attr unit  bytes
scalar Net60.rte[5].queue[0] 	txBytes:sum 	32768
attr interpolationmode  none
attr title  "transmitting packet byte length, sum"
attr unit  bytes
statistic Net60.rte[5].queue[0] 	txBytes:histogram
field count 1
field mean 32768
field stddev -nan
field sum 32768
field sqrsum 1073741824
field min 32768
field max 32768
attr interpolationmode  none
attr title  "transmitting packet byte length, histogram"
attr unit  bytes
bin	-INF	0
bin	32767	0
bin	32768	1
bin	32769	0
scalar Net60.rte[5].queue[0] 	busy:timeavg 	0.090690848366621
attr interpolationmode  sample-hold
attr title  "server busy state, timeavg"
scalar Net60.rte[5].queue[0] 	qlen:timeavg 	0
attr interpolationmode  sample-hold
attr title  "queue length, timeavg"
scalar Net60.rte[5].queue[0] 	qlen:max 	0
attr interpolationmode  sample-hold
attr title  "queue length, max"
scalar Net60.rte[5].queue[0] 	drop:count 	0
attr interpolationmode  none
attr title  "dropped packet byte length, count"
attr unit  bytes
scalar Net60.rte[5].queue[0] 	drop:sum 	0
attr interpolationmode  none
attr title  "dropped packet byte length, sum"
attr unit  bytes
scalar Net60.rte[5].queue[1] 	rxBytes:count 	0
attr interpolationmode  none
attr title  "received packet byte length, count"
attr unit  bytes
scalar Net60.rte[5].queue[1] 	rxBytes:sum 	0
attr interpolationmode  none
attr title  "received packet byte length, sum"
attr unit  bytes
statistic Net60.rte[5].queue[1] 	rxBytes:histogram
field count 0
field mean -nan
field stddev -nan
field sum 0
field sqrsum 0
field min -nan
field max -nan
attr interpolationmode  none
attr title  "received packet byte length, histogram"
attr unit  bytes
bin	-INF	0
bin	-0.5	0
bin	-0.46666666666667	0
bin	-0.43333333333333	0
bin	-0.4	0
bin	-0.36666666666667	0
bin	-0.33333333333333	0
bin	-0.3	0
bin	-0.26666666666667	0
bin	-0.23333333333333	0
bin	-0.2	0
bin	-0.16666666666667	0
bin	-0.13333333333333	0
bin	-0.1	0
bin	-0.066666666666667	0
bin	-0.033333333333333	0
bin	0	0
bin	0.033333333333333	0
bin	0.066666666666667	0
bin	0.1	0
bin	0.13333333333333	0
bin	0.16666666666667	0
bin	0.2	0
bin	0.23333333333333	0
bin	0.26666666666667	0
bin	0.3	0
bin	0.33333333333333	0
bin	0.36666666666667	0
bin	0.4	0
bin	0.43333333333333	0
bin	0.46666666666667	0
bin	0.5	0
scalar Net60.rte[5].queue[1] 	txBytes:count 	0
attr interpolationmode  none
attr title  "transmitting packet byte length, count"
attr unit  bytes
scalar Net60.rte[5].queue[1] 	txBytes:sum 	0
attr interpolationmode  none
attr title  "transmitting packet byte length, sum"
attr unit  bytes
statistic Net60.rte[5].queue[1] 	txBytes:histogram
field count 0
field mean -nan
field stddev -nan
field sum 0
field sqrsum 0
field min -nan
field max -nan
attr interpolationmode  none
attr title  "transmitting packet byte length, histogram"
attr unit  bytes
bin	-INF	0
bin	-0.5	0
bin	-0.46666666666667	0
bin	-0.43333333333333	0
bin	-0.4	0
bin	-0.36666666666667	0
bin	-0.33333333333333	0
bin	-0.3	0
bin	-0.26666666666667	0
bin	-0.23333333333333	0
bin	-0.2	0
bin	-0.16666666666667	0
bin	-0.13333333333333	0
bin	-0.1	0
bin	-0.066666666666667	0
bin	-0.033333333333333	0
bin	0	0
bin	0.033333333333333	0
bin	0.066666666666667	0
bin	0.1	0
bin	0.13333333333333	0
bin	0.16666666666667	0
bin	0.2	0
bin	0.23333333333333	0
bin	0.26666666666667	0
bin	0.3	0
bin	0.33333333333333	0
bin	0.36666666666667	0
bin	0.4	0
bin	0.43333333333333	0
bin	0.46666666666667	0
bin	0.5	0
scalar Net60.rte[5].queue[1] 	busy:timeavg 	0
attr interpolationmode  sample-hold
attr title  "server busy state, timeavg"
scalar Net60.rte[5].queue[1] 	qlen:timeavg 	0
attr interpolationmode  sample-hold
attr title  "queue length, timeavg"
scalar Net60.rte[5].queue[1] 	qlen:max 	0
attr interpolationmode  sample-hold
attr title  "queue length, max"
scalar Net60.rte[5].queue[1] 	drop:count 	0
attr interpolationmode  none
attr title  "dropped packet byte length, count"
attr unit  bytes
scalar Net60.rte[5].queue[1] 	drop:sum 	0
attr interpolationmode  none
attr title  "dropped packet byte length, sum"
attr unit  bytes
scalar Net60.rte[5].queue[2] 	rxBytes:count 	1
attr interpolationmode  none
attr title  "received packet byte length, count"
attr unit  bytes
scalar Net60.rte[5].queue[2] 	rxBytes:sum 	32768
attr interpolationmode  none
attr title  "received packet byte length, sum"
attr unit  bytes
statistic Net60.rte[5].queue[2] 	rxBytes:histogram
field count 1
field mean 32768
field stddev -nan
field sum 32768
field sqrsum 1073741824
field min 32768
field max 32768
attr interpolationmode  none
attr title  "received packet byte length, histogram"
attr unit  bytes
bin	-INF	0
bin	32767	0
bin	32768	1
bin	32769	0
scalar Net60.rte[5].queue[2] 	txBytes:count 	0
attr interpolationmode  none
attr title  "transmitting packet byte length, count"
attr unit  bytes
scalar Net60.rte[5].queue[2] 	txBytes:sum 	0
attr interpolationmode  none
attr title  "transmitting packet byte length, sum"
attr unit  bytes
statistic Net60.rte[5].queue[2] 	txBytes:histogram
field count 0
field mean -nan
field stddev -nan
field sum 0
field sqrsum 0
field min -nan
field max -nan
attr interpolationmode  none
attr title  "transmitting packet byte length, histogram"
attr unit  bytes
bin	-INF	0
bin	-0.5	0
bin	-0.46666666666667	0
bin	-0.43333333333333	0
bin	-0.4	0
bin	-0.36666666666667	0
bin	-0.33333333333333	0
bin	-0.3	0
bin	-0.26666666666667	0
bin	-0.23333333333333	0
bin	-0.2	0
bin	-0.16666666666667	0
bin	-0.13333333333333	0
bin	-0.1	0
bin	-0.066666666666667	0
bin	-0.033333333333333	0
bin	0	0
bin	0.033333333333333	0
bin	0.066666666666667	0
bin	0.1	0
bin	0.13333333333333	0
bin	0.16666666666667	0
bin	0.2	0
bin	0.23333333333333	0
bin	0.26666666666667	0
bin	0.3	0
bin	0.33333333333333	0
bin	0.36666666666667	0
bin	0.4	0
bin	0.43333333333333	0
bin	0.46666666666667	0
bin	0.5	0
scalar Net60.rte[5].queue[2] 	busy:timeavg 	0
attr interpolationmode  sample-hold
attr title  "server busy state, timeavg"
scalar Net60.rte[5].queue[2] 	qlen:timeavg 	0
attr interpolationmode  sample-hold
attr title  "queue length, timeavg"
scalar Net60.rte[5].queue[2] 	qlen:max 	0
attr interpolationmode  sample-hold
attr title  "queue length, max"
scalar Net60.rte[5].queue[2] 	drop:count 	0
attr interpolationmode  none
attr title  "dropped packet byte length, count"
attr unit  bytes
scalar Net60.rte[5].queue[2] 	drop:sum 	0
attr interpolationmode  none
attr title  "dropped packet byte length, sum"
attr unit  bytes
scalar Net60.rte[6].app 	hopCount:mean 	-nan
attr interpolationmode  none
attr title  "hop count of arrived packets, mean"
scalar Net60.rte[6].app 	hopCount:max 	-nan
attr interpolationmode  none
attr title  "hop count of arrived packets, max"
scalar Net60.rte[6].app 	endToEndDelay:mean 	-nan
attr interpolationmode  none
attr title  "end-to-end delay of arrived packets, mean"
attr unit  s
scalar Net60.rte[6].app 	endToEndDelay:max 	-nan
attr interpolationmode  none
attr title  "end-to-end delay of arrived packets, max"
attr unit  s
statistic Net60.rte[6].routing 	outputIf:histogram
field count 0
field mean -nan
field stddev -nan
field sum 0
field sqrsum 0
field min -nan
field max -nan
attr interpolationmode  none
attr title  "output interface for each routed packet, histogram"
bin	-INF	0
bin	-0.5	0
bin	-0.46666666666667	0
bin	-0.43333333333333	0
bin	-0.4	0
bin	-0.36666666666667	0
bin	-0.33333333333333	0
bin	-0.3	0
bin	-0.26666666666667	0
bin	-0.23333333333333	0
bin	-0.2	0
bin	-0.16666666666667	0
bin	-0.13333333333333	0
bin	-0.1	0
bin	-0.066666666666667	0
bin	-0.033333333333333	0
bin	0	0
bin	0.033333333333333	0
bin	0.066666666666667	0
bin	0.1	0
bin	0.13333333333333	0
bin	0.16666666666667	0
bin	0.2	0
bin	0.23333333333333	0
bin	0.26666666666667	0
bin	0.3	0
bin	0.33333333333333	0
bin	0.36666666666667	0
bin	0.4	0
bin	0.43333333333333	0
bin	0.46666666666667	0
bin	0.5	0
scalar Net60.rte[6].routing 	drop:count 	0
attr interpolationmode  none
attr title  "dropped packet byte length, count"
attr unit  bytes
scalar Net60.rte[6].routing 	drop:sum 	0
attr interpolationmode  none
attr title  "dropped packet byte length, sum"
attr unit  bytes
scalar Net60.rte[6].queue[0] 	rxBytes:count 	0
attr interpolationmode  none
attr title  "received packet byte length, count"
attr unit  bytes
scalar Net60.rte[6].queue[0] 	rxBytes:sum 	0
attr interpolationmode  none
attr title  "received packet byte length, sum"
attr unit  bytes
statistic Net60.rte[6].queue[0] 	rxBytes:histogram
field count 0
field mean -nan
field stddev -nan
field sum 0
field sqrsum 0
field min -nan
field max -nan
attr interpolationmode  none
attr title  "received packet byte length, histogram"
attr unit  bytes
bin	-INF	0
bin	-0.5	0
bin	-0.46666666666667	0
bin	-0.43333333333333	0
bin	-0.4	0
bin	-0.36666666666667	0
bin	-0.33333333333333	0
bin	-0.3	0
bin	-0.26666666666667	0
bin	-0.23333333333333	0
bin	-0.2	0
bin	-0.16666666666667	0
bin	-0.13333333333333	0
bin	-0.1	0
bin	-0.066666666666667	0
bin	-0.033333333333333	0
bin	0	0
bin	0.033333333333333	0
bin	0.066666666666667	0
bin	0.1	0
bin	0.13333333333333	0
bin	0.16666666666667	0
bin	0.2	0
bin	0.23333333333333	0
bin	0.26666666666667	0
bin	0.3	0
bin	0.33333333333333	0
bin	0.36666666666667	0
bin	0.4	0
bin	0.43333333333333	0
bin	0.46666666666667	0
bin	0.5	0
scalar Net60.rte[6].queue[0] 	txBytes:count 	0
attr interpolationmode  none
attr title  "transmitting packet byte length, count"
attr unit  bytes
scalar Net60.rte[6].queue[0] 	txBytes:sum 	0
attr interpolationmode  none
attr title  "transmitting packet byte length, sum"
attr unit  bytes
statistic Net60.rte[6].queue[0] 	txBytes:histogram
field count 0
field mean -nan
field stddev -nan
field sum 0
field sqrsum 0
field min -nan
field max -nan
attr interpolationmode  none
attr title  "transmitting packet byte length, histogram"
attr unit  bytes
bin	-INF	0
bin	-0.5	0
bin	-0.46666666666667	0
bin	-0.43333333333333	0
bin	-0.4	0
bin	-0.36666666666667	0
bin	-0.33333333333333	0
bin	-0.3	0
bin	-0.26666666666667	0
bin	-0.23333333333333	0
bin	-0.2	0
bin	-0.16666666666667	0
bin	-0.13333333333333	0
bin	-0.1	0
bin	-0.066666666666667	0
bin	-0.033333333333333	0
bin	0	0
bin	0.033333333333333	0
bin	0.066666666666667	0
bin	0.1	0
bin	0.13333333333333	0
bin	0.16666666666667	0
bin	0.2	0
bin	0.23333333333333	0
bin	0.26666666666667	0
bin	0.3	0
bin	0.33333333333333	0
bin	0.36666666666667	0
bin	0.4	0
bin	0.43333333333333	0
bin	0.46666666666667	0
bin	0.5	0
scalar Net60.rte[6].queue[0] 	busy:timeavg 	0
attr interpolationmode  sample-hold
attr title  "server busy state, timeavg"
scalar Net60.rte[6].queue[0] 	qlen:timeavg 	0
attr interpolationmode  sample-hold
attr title  "queue length, timeavg"
scalar Net60.rte[6].queue[0] 	qlen:max 	0
attr interpolationmode  sample-hold
attr title  "queue length, max"
scalar Net60.rte[6].queue[0] 	drop:count 	0
attr interpolationmode  none
attr title  "dropped packet byte length, count"
attr unit  bytes
scalar Net60.rte[6].queue[0] 	drop:sum 	0
attr interpolationmode  none
attr title  "dropped packet byte length, sum"
attr unit  bytes
scalar Net60.rte[6].queue[1] 	rxBytes:count 	0
attr interpolationmode  none
attr title  "received packet byte length, count"
attr unit  bytes
scalar Net60.rte[6].queue[1] 	rxBytes:sum 	0
attr interpolationmode  none
attr title  "received packet byte length, sum"
attr unit  bytes
statistic Net60.rte[6].queue[1] 	rxBytes:histogram
field count 0
field mean -nan
field stddev -nan
field sum 0
field sqrsum 0
field min -nan
field max -nan
attr interpolationmode  none
attr title  "received packet byte length, histogram"
attr unit  bytes
bin	-INF	0
bin	-0.5	0
bin	-0.46666666666667	0
bin	-0.43333333333333	0
bin	-0.4	0
bin	-0.36666666666667	0
bin	-0.33333333333333	0
bin	-0.3	0
bin	-0.26666666666667	0
bin	-0.23333333333333	0
bin	-0.2	0
bin	-0.16666666666667	0
bin	-0.13333333333333	0
bin	-0.1	0
bin	-0.066666666666667	0
bin	-0.033333333333333	0
bin	0	0
bin	0.033333333333333	0
bin	0.066666666666667	0
bin	0.1	0
bin	0.13333333333333	0
bin	0.16666666666667	0
bin	0.2	0
bin	0.23333333333333	0
bin	0.26666666666667	0
bin	0.3	0
bin	0.33333333333333	0
bin	0.36666666666667	0
bin	0.4	0
bin	0.43333333333333	0
bin	0.46666666666667	0
bin	0.5	0
scalar Net60.rte[6].queue[1] 	txBytes:count 	0
attr interpolationmode  none
attr title  "transmitting packet byte length, count"
attr unit  bytes
scalar Net60.rte[6].queue[1] 	txBytes:sum 	0
attr interpolationmode  none
attr title  "transmitting packet byte length, sum"
attr unit  bytes
statistic Net60.rte[6].queue[1] 	txBytes:histogram
field count 0
field mean -nan
field stddev -nan
field sum 0
field sqrsum 0
field min -nan
field max -nan
attr interpolationmode  none
attr title  "transmitting packet byte length, histogram"
attr unit  bytes
bin	-INF	0
bin	-0.5	0
bin	-0.46666666666667	0
bin	-0.43333333333333	0
bin	-0.4	0
bin	-0.36666666666667	0
bin	-0.33333333333333	0
bin	-0.3	0
bin	-0.26666666666667	0
bin	-0.23333333333333	0
bin	-0.2	0
bin	-0.16666666666667	0
bin	-0.13333333333333	0
bin	-0.1	0
bin	-0.066666666666667	0
bin	-0.033333333333333	0
bin	0	0
bin	0.033333333333333	0
bin	0.066666666666667	0
bin	0.1	0
bin	0.13333333333333	0
bin	0.16666666666667	0
bin	0.2	0
bin	0.23333333333333	0
bin	0.26666666666667	0
bin	0.3	0
bin	0.33333333333333	0
bin	0.36666666666667	0
bin	0.4	0
bin	0.43333333333333	0
bin	0.46666666666667	0
bin	0.5	0
scalar Net60.rte[6].queue[1] 	busy:timeavg 	0
attr interpolationmode  sample-hold
attr title  "server busy state, timeavg"
scalar Net60.rte[6].queue[1] 	qlen:timeavg 	0
attr interpolationmode  sample-hold
attr title  "queue length, timeavg"
scalar Net60.rte[6].queue[1] 	qlen:max 	0
attr interpolationmode  sample-hold
attr title  "queue length, max"
scalar Net60.rte[6].queue[1] 	drop:count 	0
attr interpolationmode  none
attr title  "dropped packet byte length, count"
attr unit  bytes
scalar Net60.rte[6].queue[1] 	drop:sum 	0
attr interpolationmode  none
attr title  "dropped packet byte length, sum"
attr unit  bytes
scalar Net60.rte[6].queue[2] 	rxBytes:count 	0
attr interpolationmode  none
attr title  "received packet byte length, count"
attr unit  bytes
scalar Net60.rte[6].queue[2] 	rxBytes:sum 	0
attr interpolationmode  none
attr title  "received packet byte length, sum"
attr unit  bytes
statistic Net60.rte[6].queue[2] 	rxBytes:histogram
field count 0
field mean -nan
field stddev -nan
field sum 0
field sqrsum 0
field min -nan
field max -nan
attr interpolationmode  none
attr title  "received packet byte length, histogram"
attr unit  bytes
bin	-INF	0
bin	-0.5	0
bin	-0.46666666666667	0
bin	-0.43333333333333	0
bin	-0.4	0
bin	-0.36666666666667	0
bin	-0.33333333333333	0
bin	-0.3	0
bin	-0.26666666666667	0
bin	-0.23333333333333	0
bin	-0.2	0
bin	-0.16666666666667	0
bin	-0.13333333333333	0
bin	-0.1	0
bin	-0.066666666666667	0
bin	-0.033333333333333	0
bin	0	0
bin	0.033333333333333	0
bin	0.066666666666667	0
bin	0.1	0
bin	0.13333333333333	0
bin	0.16666666666667	0
bin	0.2	0
bin	0.23333333333333	0
bin	0.26666666666667	0
bin	0.3	0
bin	0.33333333333333	0
bin	0.36666666666667	0
bin	0.4	0
bin	0.43333333333333	0
bin	0.46666666666667	0
bin	0.5	0
scalar Net60.rte[6].queue[2] 	txBytes:count 	0
attr interpolationmode  none
attr title  "transmitting packet byte length, count"
attr unit  bytes
scalar Net60.rte[6].queue[2] 	txBytes:sum 	0
attr interpolationmode  none
attr title  "transmitting packet byte length, sum"
attr unit  bytes
statistic Net60.rte[6].queue[2] 	txBytes:histogram
field count 0
field mean -nan
field stddev -nan
field sum 0
field sqrsum 0
field min -nan
field max -nan
attr interpolationmode  none
attr title  "transmitting packet byte length, histogram"
attr unit  bytes
bin	-INF	0
bin	-0.5	0
bin	-0.46666666666667	0
bin	-0.43333333333333	0
bin	-0.4	0
bin	-0.36666666666667	0
bin	-0.33333333333333	0
bin	-0.3	0
bin	-0.26666666666667	0
bin	-0.23333333333333	0
bin	-0.2	0
bin	-0.16666666666667	0
bin	-0.13333333333333	0
bin	-0.1	0
bin	-0.066666666666667	0
bin	-0.033333333333333	0
bin	0	0
bin	0.033333333333333	0
bin	0.066666666666667	0
bin	0.1	0
bin	0.13333333333333	0
bin	0.16666666666667	0
bin	0.2	0
bin	0.23333333333333	0
bin	0.26666666666667	0
bin	0.3	0
bin	0.33333333333333	0
bin	0.36666666666667	0
bin	0.4	0
bin	0.43333333333333	0
bin	0.46666666666667	0
bin	0.5	0
scalar Net60.rte[6].queue[2] 	busy:timeavg 	0
attr interpolationmode  sample-hold
attr title  "server busy state, timeavg"
scalar Net60.rte[6].queue[2] 	qlen:timeavg 	0
attr interpolationmode  sample-hold
attr title  "queue length, timeavg"
scalar Net60.rte[6].queue[2] 	qlen:max 	0
attr interpolationmode  sample-hold
attr title  "queue length, max"
scalar Net60.rte[6].queue[2] 	drop:count 	0
attr interpolationmode  none
attr title  "dropped packet byte length, count"
attr unit  bytes
scalar Net60.rte[6].queue[2] 	drop:sum 	0
attr interpolationmode  none
attr title  "dropped packet byte length, sum"
attr unit  bytes
scalar Net60.rte[7].app 	hopCount:mean 	-nan
attr interpolationmode  none
attr title  "hop count of arrived packets, mean"
scalar Net60.rte[7].app 	hopCount:max 	-nan
attr interpolationmode  none
attr title  "hop count of arrived packets, max"
scalar Net60.rte[7].app 	endToEndDelay:mean 	-nan
attr interpolationmode  none
attr title  "end-to-end delay of arrived packets, mean"
attr unit  s
scalar Net60.rte[7].app 	endToEndDelay:max 	-nan
attr interpolationmode  none
attr title  "end-to-end delay of arrived packets, max"
attr unit  s
statistic Net60.rte[7].routing 	outputIf:histogram
field count 0
field mean -nan
field stddev -nan
field sum 0
field sqrsum 0
field min -nan
field max -nan
attr interpolationmode  none
attr title  "output interface for each routed packet, histogram"
bin	-INF	0
bin	-0.5	0
bin	-0.46666666666667	0
bin	-0.43333333333333	0
bin	-0.4	0
bin	-0.36666666666667	0
bin	-0.33333333333333	0
bin	-0.3	0
bin	-0.26666666666667	0
bin	-0.23333333333333	0
bin	-0.2	0
bin	-0.16666666666667	0
bin	-0.13333333333333	0
bin	-0.1	0
bin	-0.066666666666667	0
bin	-0.033333333333333	0
bin	0	0
bin	0.033333333333333	0
bin	0.066666666666667	0
bin	0.1	0
bin	0.13333333333333	0
bin	0.16666666666667	0
bin	0.2	0
bin	0.23333333333333	0
bin	0.26666666666667	0
bin	0.3	0
bin	0.33333333333333	0
bin	0.36666666666667	0
bin	0.4	0
bin	0.43333333333333	0
bin	0.46666666666667	0
bin	0.5	0
scalar Net60.rte[7].routing 	drop:count 	0
attr interpolationmode  none
attr title  "dropped packet byte length, count"
attr unit  bytes
scalar Net60.rte[7].routing 	drop:sum 	0
attr interpolationmode  none
attr title  "dropped packet byte length, sum"
attr unit  bytes
scalar Net60.rte[7].queue[0] 	rxBytes:count 	0
attr interpolationmode  none
attr title  "received packet byte length, count"
attr unit  bytes
scalar Net60.rte[7].queue[0] 	rxBytes:sum 	0
attr interpolationmode  none
attr title  "received packet byte length, sum"
attr unit  bytes
statistic Net60.rte[7].queue[0] 	rxBytes:histogram
field count 0
field mean -nan
field stddev -nan
field sum 0
field sqrsum 0
field min -nan
field max -nan
attr interpolationmode  none
attr title  "received packet byte length, histogram"
attr unit  bytes
bin	-INF	0
bin	-0.5	0
bin	-0.46666666666667	0
bin	-0.43333333333333	0
bin	-0.4	0
bin	-0.36666666666667	0
bin	-0.33333333333333	0
bin	-0.3	0
bin	-0.26666666666667	0
bin	-0.23333333333333	0
bin	-0.2	0
bin	-0.16666666666667	0
bin	-0.13333333333333	0
bin	-0.1	0
bin	-0.066666666666667	0
bin	-0.033333333333333	0
bin	0	0
bin	0.033333333333333	0
bin	0.066666666666667	0
bin	0.1	0
bin	0.13333333333333	0
bin	0.16666666666667	0
bin	0.2	0
bin	0.23333333333333	0
bin	0.26666666666667	0
bin	0.3	0
bin	0.33333333333333	0
bin	0.36666666666667	0
bin	0.4	0
bin	0.43333333333333	0
bin	0.46666666666667	0
bin	0.5	0
scalar Net60.rte[7].queue[0] 	txBytes:count 	0
attr interpolationmode  none
attr title  "transmitting packet byte length, count"
attr unit  bytes
scalar Net60.rte[7].queue[0] 	txBytes:sum 	0
attr interpolationmode  none
attr title  "transmitting packet byte length, sum"
attr unit  bytes
statistic Net60.rte[7].queue[0] 	txBytes:histogram
field count 0
field mean -nan
field stddev -nan
field sum 0
field sqrsum 0
field min -nan
field max -nan
attr interpolationmode  none
attr title  "transmitting packet byte length, histogram"
attr unit  bytes
bin	-INF	0
bin	-0.5	0
bin	-0.46666666666667	0
bin	-0.43333333333333	0
bin	-0.4	0
bin	-0.36666666666667	0
bin	-0.33333333333333	0
bin	-0.3	0
bin	-0.26666666666667	0
bin	-0.23333333333333	0
bin	-0.2	0
bin	-0.16666666666667	0
bin	-0.13333333333333	0
bin	-0.1	0
bin	-0.066666666666667	0
bin	-0.033333333333333	0
bin	0	0
bin	0.033333333333333	0
bin	0.066666666666667	0
bin	0.1	0
bin	0.13333333333333	0
bin	0.16666666666667	0
bin	0.2	0
bin	0.23333333333333	0
bin	0.26666666666667	0
bin	0.3	0
bin	0.33333333333333	0
bin	0.36666666666667	0
bin	0.4	0
bin	0.43333333333333	0
bin	0.46666666666667	0
bin	0.5	0
scalar Net60.rte[7].queue[0] 	busy:timeavg 	0
attr interpolationmode  sample-hold
attr title  "server busy state, timeavg"
scalar Net60.rte[7].queue[0] 	qlen:timeavg 	0
attr interpolationmode  sample-hold
attr title  "queue length, timeavg"
scalar Net60.rte[7].queue[0] 	qlen:max 	0
attr interpolationmode  sample-hold
attr title  "queue length, max"
scalar Net60.rte[7].queue[0] 	drop:count 	0
attr interpolationmode  none
attr title  "dropped packet byte length, count"
attr unit  bytes
scalar Net60.rte[7].queue[0] 	drop:sum 	0
attr interpolationmode  none
attr title  "dropped packet byte length, sum"
attr unit  bytes
scalar Net60.rte[7].queue[1] 	rxBytes:count 	0
attr interpolationmode  none
attr title  "received packet byte length, count"
attr unit  bytes
scalar Net60.rte[7].queue[1] 	rxBytes:sum 	0
attr interpolationmode  none
attr title  "received packet byte length, sum"
attr unit  bytes
statistic Net60.rte[7].queue[1] 	rxBytes:histogram
field count 0
field mean -nan
field stddev -nan
field sum 0
field sqrsum 0
field min -nan
field max -nan
attr interpolationmode  none
attr title  "received packet byte length, histogram"
attr unit  bytes
bin	-INF	0
bin	-0.5	0
bin	-0.46666666666667	0
bin	-0.43333333333333	0
bin	-0.4	0
bin	-0.36666666666667	0
bin	-0.33333333333333	0
bin	-0.3	0
bin	-0.26666666666667	0
bin	-0.23333333333333	0
bin	-0.2	0
bin	-0.16666666666667	0
bin	-0.13333333333333	0
bin	-0.1	0
bin	-0.066666666666667	0
bin	-0.033333333333333	0
bin	0	0
bin	0.033333333333333	0
bin	0.066666666666667	0
bin	0.1	0
bin	0.13333333333333	0
bin	0.16666666666667	0
bin	0.2	0
bin	0.23333333333333	0
bin	0.26666666666667	0
bin	0.3	0
bin	0.33333333333333	0
bin	0.36666666666667	0
bin	0.4	0
bin	0.43333333333333	0
bin	0.46666666666667	0
bin	0.5	0
scalar Net60.rte[7].queue[1] 	txBytes:count 	0
attr interpolationmode  none
attr title  "transmitting packet byte length, count"
attr unit  bytes
scalar Net60.rte[7].queue[1] 	txBytes:sum 	0
attr interpolationmode  none
attr title  "transmitting packet byte length, sum"
attr unit  bytes
statistic Net60.rte[7].queue[1] 	txBytes:histogram
field count 0
field mean -nan
field stddev -nan
field sum 0
field sqrsum 0
field min -nan
field max -nan
attr interpolationmode  none
attr title  "transmitting packet byte length, histogram"
attr unit  bytes
bin	-INF	0
bin	-0.5	0
bin	-0.46666666666667	0
bin	-0.43333333333333	0
bin	-0.4	0
bin	-0.36666666666667	0
bin	-0.33333333333333	0
bin	-0.3	0
bin	-0.26666666666667	0
bin	-0.23333333333333	0
bin	-0.2	0
bin	-0.16666666666667	0
bin	-0.13333333333333	0
bin	-0.1	0
bin	-0.066666666666667	0
bin	-0.033333333333333	0
bin	0	0
bin	0.033333333333333	0
bin	0.066666666666667	0
bin	0.1	0
bin	0.13333333333333	0
bin	0.16666666666667	0
bin	0.2	0
bin	0.23333333333333	0
bin	0.26666666666667	0
bin	0.3	0
bin	0.33333333333333	0
bin	0.36666666666667	0
bin	0.4	0
bin	0.43333333333333	0
bin	0.46666666666667	0
bin	0.5	0
scalar Net60.rte[7].queue[1] 	busy:timeavg 	0
attr interpolationmode  sample-hold
attr title  "server busy state, timeavg"
scalar Net60.rte[7].queue[1] 	qlen:timeavg 	0
attr interpolationmode  sample-hold
attr title  "queue length, timeavg"
scalar Net60.rte[7].queue[1] 	qlen:max 	0
attr interpolationmode  sample-hold
attr title  "queue length, max"
scalar Net60.rte[7].queue[1] 	drop:count 	0
attr interpolationmode  none
attr title  "dropped packet byte length, count"
attr unit  bytes
scalar Net60.rte[7].queue[1] 	drop:sum 	0
attr interpolationmode  none
attr title  "dropped packet byte length, sum"
attr unit  bytes
scalar Net60.rte[7].queue[2] 	rxBytes:count 	0
attr interpolationmode  none
attr title  "received packet byte length, count"
attr unit  bytes
scalar Net60.rte[7].queue[2] 	rxBytes:sum 	0
attr interpolationmode  none
attr title  "received packet byte length, sum"
attr unit  bytes
statistic Net60.rte[7].queue[2] 	rxBytes:histogram
field count 0
field mean -nan
field stddev -nan
field sum 0
field sqrsum 0
field min -nan
field max -nan
attr interpolationmode  none
attr title  "received packet byte length, histogram"
attr unit  bytes
bin	-INF	0
bin	-0.5	0
bin	-0.46666666666667	0
bin	-0.43333333333333	0
bin	-0.4	0
bin	-0.36666666666667	0
bin	-0.33333333333333	0
bin	-0.3	0
bin	-0.26666666666667	0
bin	-0.23333333333333	0
bin	-0.2	0
bin	-0.16666666666667	0
bin	-0.13333333333333	0
bin	-0.1	0
bin	-0.066666666666667	0
bin	-0.033333333333333	0
bin	0	0
bin	0.033333333333333	0
bin	0.066666666666667	0
bin	0.1	0
bin	0.13333333333333	0
bin	0.16666666666667	0
bin	0.2	0
bin	0.23333333333333	0
bin	0.26666666666667	0
bin	0.3	0
bin	0.33333333333333	0
bin	0.36666666666667	0
bin	0.4	0
bin	0.43333333333333	0
bin	0.46666666666667	0
bin	0.5	0
scalar Net60.rte[7].queue[2] 	txBytes:count 	0
attr interpolationmode  none
attr title  "transmitting packet byte length, count"
attr unit  bytes
scalar Net60.rte[7].queue[2] 	txBytes:sum 	0
attr interpolationmode  none
attr title  "transmitting packet byte length, sum"
attr unit  bytes
statistic Net60.rte[7].queue[2] 	txBytes:histogram
field count 0
field mean -nan
field stddev -nan
field sum 0
field sqrsum 0
field min -nan
field max -nan
attr interpolationmode  none
attr title  "transmitting packet byte length, histogram"
attr unit  bytes
bin	-INF	0
bin	-0.5	0
bin	-0.46666666666667	0
bin	-0.43333333333333	0
bin	-0.4	0
bin	-0.36666666666667	0
bin	-0.33333333333333	0
bin	-0.3	0
bin	-0.26666666666667	0
bin	-0.23333333333333	0
bin	-0.2	0
bin	-0.16666666666667	0
bin	-0.13333333333333	0
bin	-0.1	0
bin	-0.066666666666667	0
bin	-0.033333333333333	0
bin	0	0
bin	0.033333333333333	0
bin	0.066666666666667	0
bin	0.1	0
bin	0.13333333333333	0
bin	0.16666666666667	0
bin	0.2	0
bin	0.23333333333333	0
bin	0.26666666666667	0
bin	0.3	0
bin	0.33333333333333	0
bin	0.36666666666667	0
bin	0.4	0
bin	0.43333333333333	0
bin	0.46666666666667	0
bin	0.5	0
scalar Net60.rte[7].queue[2] 	busy:timeavg 	0
attr interpolationmode  sample-hold
attr title  "server busy state, timeavg"
scalar Net60.rte[7].queue[2] 	qlen:timeavg 	0
attr interpolationmode  sample-hold
attr title  "queue length, timeavg"
scalar Net60.rte[7].queue[2] 	qlen:max 	0
attr interpolationmode  sample-hold
attr title  "queue length, max"
scalar Net60.rte[7].queue[2] 	drop:count 	0
attr interpolationmode  none
attr title  "dropped packet byte length, count"
attr unit  bytes
scalar Net60.rte[7].queue[2] 	drop:sum 	0
attr interpolationmode  none
attr title  "dropped packet byte length, sum"
attr unit  bytes
scalar Net60.rte[7].queue[3] 	rxBytes:count 	0
attr interpolationmode  none
attr title  "received packet byte length, count"
attr unit  bytes
scalar Net60.rte[7].queue[3] 	rxBytes:sum 	0
attr interpolationmode  none
attr title  "received packet byte length, sum"
attr unit  bytes
statistic Net60.rte[7].queue[3] 	rxBytes:histogram
field count 0
field mean -nan
field stddev -nan
field sum 0
field sqrsum 0
field min -nan
field max -nan
attr interpolationmode  none
attr title  "received packet byte length, histogram"
attr unit  bytes
bin	-INF	0
bin	-0.5	0
bin	-0.46666666666667	0
bin	-0.43333333333333	0
bin	-0.4	0
bin	-0.36666666666667	0
bin	-0.33333333333333	0
bin	-0.3	0
bin	-0.26666666666667	0
bin	-0.23333333333333	0
bin	-0.2	0
bin	-0.16666666666667	0
bin	-0.13333333333333	0
bin	-0.1	0
bin	-0.066666666666667	0
bin	-0.033333333333333	0
bin	0	0
bin	0.033333333333333	0
bin	0.066666666666667	0
bin	0.1	0
bin	0.13333333333333	0
bin	0.16666666666667	0
bin	0.2	0
bin	0.23333333333333	0
bin	0.26666666666667	0
bin	0.3	0
bin	0.33333333333333	0
bin	0.36666666666667	0
bin	0.4	0
bin	0.43333333333333	0
bin	0.46666666666667	0
bin	0.5	0
scalar Net60.rte[7].queue[3] 	txBytes:count 	0
attr interpolationmode  none
attr title  "transmitting packet byte length, count"
attr unit  bytes
scalar Net60.rte[7].queue[3] 	txBytes:sum 	0
attr interpolationmode  none
attr title  "transmitting packet byte length, sum"
attr unit  bytes
statistic Net60.rte[7].queue[3] 	txBytes:histogram
field count 0
field mean -nan
field stddev -nan
field sum 0
field sqrsum 0
field min -nan
field max -nan
attr interpolationmode  none
attr title  "transmitting packet byte length, histogram"
attr unit  bytes
bin	-INF	0
bin	-0.5	0
bin	-0.46666666666667	0
bin	-0.43333333333333	0
bin	-0.4	0
bin	-0.36666666666667	0
bin	-0.33333333333333	0
bin	-0.3	0
bin	-0.26666666666667	0
bin	-0.23333333333333	0
bin	-0.2	0
bin	-0.16666666666667	0
bin	-0.13333333333333	0
bin	-0.1	0
bin	-0.066666666666667	0
bin	-0.033333333333333	0
bin	0	0
bin	0.033333333333333	0
bin	0.066666666666667	0
bin	0.1	0
bin	0.13333333333333	0
bin	0.16666666666667	0
bin	0.2	0
bin	0.23333333333333	0
bin	0.26666666666667	0
bin	0.3	0
bin	0.33333333333333	0
bin	0.36666666666667	0
bin	0.4	0
bin	0.43333333333333	0
bin	0.46666666666667	0
bin	0.5	0
scalar Net60.rte[7].queue[3] 	busy:timeavg 	0
attr interpolationmode  sample-hold
attr title  "server busy state, timeavg"
scalar Net60.rte[7].queue[3] 	qlen:timeavg 	0
attr interpolationmode  sample-hold
attr title  "queue length, timeavg"
scalar Net60.rte[7].queue[3] 	qlen:max 	0
attr interpolationmode  sample-hold
attr title  "queue length, max"
scalar Net60.rte[7].queue[3] 	drop:count 	0
attr interpolationmode  none
attr title  "dropped packet byte length, count"
attr unit  bytes
scalar Net60.rte[7].queue[3] 	drop:sum 	0
attr interpolationmode  none
attr title  "dropped packet byte length, sum"
attr unit  bytes
scalar Net60.rte[8].app 	hopCount:mean 	-nan
attr interpolationmode  none
attr title  "hop count of arrived packets, mean"
scalar Net60.rte[8].app 	hopCount:max 	-nan
attr interpolationmode  none
attr title  "hop count of arrived packets, max"
scalar Net60.rte[8].app 	endToEndDelay:mean 	-nan
attr interpolationmode  none
attr title  "end-to-end delay of arrived packets, mean"
attr unit  s
scalar Net60.rte[8].app 	endToEndDelay:max 	-nan
attr interpolationmode  none
attr title  "end-to-end delay of arrived packets, max"
attr unit  s
statistic Net60.rte[8].routing 	outputIf:histogram
field count 0
field mean -nan
field stddev -nan
field sum 0
field sqrsum 0
field min -nan
field max -nan
attr interpolationmode  none
attr title  "output interface for each routed packet, histogram"
bin	-INF	0
bin	-0.5	0
bin	-0.46666666666667	0
bin	-0.43333333333333	0
bin	-0.4	0
bin	-0.36666666666667	0
bin	-0.33333333333333	0
bin	-0.3	0
bin	-0.26666666666667	0
bin	-0.23333333333333	0
bin	-0.2	0
bin	-0.16666666666667	0
bin	-0.13333333333333	0
bin	-0.1	0
bin	-0.066666666666667	0
bin	-0.033333333333333	0
bin	0	0
bin	0.033333333333333	0
bin	0.066666666666667	0
bin	0.1	0
bin	0.13333333333333	0
bin	0.16666666666667	0
bin	0.2	0
bin	0.23333333333333	0
bin	0.26666666666667	0
bin	0.3	0
bin	0.33333333333333	0
bin	0.36666666666667	0
bin	0.4	0
bin	0.43333333333333	0
bin	0.46666666666667	0
bin	0.5	0
scalar Net60.rte[8].routing 	drop:count 	0
attr interpolationmode  none
attr title  "dropped packet byte length, count"
attr unit  bytes
scalar Net60.rte[8].routing 	drop:sum 	0
attr interpolationmode  none
attr title  "dropped packet byte length, sum"
attr unit  bytes
scalar Net60.rte[8].queue[0] 	rxBytes:count 	0
attr interpolationmode  none
attr title  "received packet byte length, count"
attr unit  bytes
scalar Net60.rte[8].queue[0] 	rxBytes:sum 	0
attr interpolationmode  none
attr title  "received packet byte length, sum"
attr unit  bytes
statistic Net60.rte[8].queue[0] 	rxBytes:histogram
field count 0
field mean -nan
field stddev -nan
field sum 0
field sqrsum 0
field min -nan
field max -nan
attr interpolationmode  none
attr title  "received packet byte length, histogram"
attr unit  bytes
bin	-INF	0
bin	-0.5	0
bin	-0.46666666666667	0
bin	-0.43333333333333	0
bin	-0.4	0
bin	-0.36666666666667	0
bin	-0.33333333333333	0
bin	-0.3	0
bin	-0.26666666666667	0
bin	-0.23333333333333	0
bin	-0.2	0
bin	-0.16666666666667	0
bin	-0.13333333333333	0
bin	-0.1	0
bin	-0.066666666666667	0
bin	-0.033333333333333	0
bin	0	0
bin	0.033333333333333	0
bin	0.066666666666667	0
bin	0.1	0
bin	0.13333333333333	0
bin	0.16666666666667	0
bin	0.2	0
bin	0.23333333333333	0
bin	0.26666666666667	0
bin	0.3	0
bin	0.33333333333333	0
bin	0.36666666666667	0
bin	0.4	0
bin	0.43333333333333	0
bin	0.46666666666667	0
bin	0.5	0
scalar Net60.rte[8].queue[0] 	txBytes:count 	0
attr interpolationmode  none
attr title  "transmitting packet byte length, count"
attr unit  bytes
scalar Net60.rte[8].queue[0] 	txBytes:sum 	0
attr interpolationmode  none
attr title  "transmitting packet byte length, sum"
attr unit  bytes
statistic Net60.rte[8].queue[0] 	txBytes:histogram
field count 0
field mean -nan
field stddev -nan
field sum 0
field sqrsum 0
field min -nan
field max -nan
attr interpolationmode  none
attr title  "transmitting packet byte length, histogram"
attr unit  bytes
bin	-INF	0
bin	-0.5	0
bin	-0.46666666666667	0
bin	-0.43333333333333	0
bin	-0.4	0
bin	-0.36666666666667	0
bin	-0.33333333333333	0
bin	-0.3	0
bin	-0.26666666666667	0
bin	-0.23333333333333	0
bin	-0.2	0
bin	-0.16666666666667	0
bin	-0.13333333333333	0
bin	-0.1	0
bin	-0.066666666666667	0
bin	-0.033333333333333	0
bin	0	0
bin	0.033333333333333	0
bin	0.066666666666667	0
bin	0.1	0
bin	0.13333333333333	0
bin	0.16666666666667	0
bin	0.2	0
bin	0.23333333333333	0
bin	0.26666666666667	0
bin	0.3	0
bin	0.33333333333333	0
bin	0.36666666666667	0
bin	0.4	0
bin	0.43333333333333	0
bin	0.46666666666667	0
bin	0.5	0
scalar Net60.rte[8].queue[0] 	busy:timeavg 	0
attr interpolationmode  sample-hold
attr title  "server busy state, timeavg"
scalar Net60.rte[8].queue[0] 	qlen:timeavg 	0
attr interpolationmode  sample-hold
attr title  "queue length, timeavg"
scalar Net60.rte[8].queue[0] 	qlen:max 	0
attr interpolationmode  sample-hold
attr title  "queue length, max"
scalar Net60.rte[8].queue[0] 	drop:count 	0
attr interpolationmode  none
attr title  "dropped packet byte length, count"
attr unit  bytes
scalar Net60.rte[8].queue[0] 	drop:sum 	0
attr interpolationmode  none
attr title  "dropped packet byte length, sum"
attr unit  bytes
scalar Net60.rte[9].app 	hopCount:mean 	-nan
attr interpolationmode  none
attr title  "hop count of arrived packets, mean"
scalar Net60.rte[9].app 	hopCount:max 	-nan
attr interpolationmode  none
attr title  "hop count of arrived packets, max"
scalar Net60.rte[9].app 	endToEndDelay:mean 	-nan
attr interpolationmode  none
attr title  "end-to-end delay of arrived packets, mean"
attr unit  s
scalar Net60.rte[9].app 	endToEndDelay:max 	-nan
attr interpolationmode  none
attr title  "end-to-end delay of arrived packets, max"
attr unit  s
statistic Net60.rte[9].routing 	outputIf:histogram
field count 0
field mean -nan
field stddev -nan
field sum 0
field sqrsum 0
field min -nan
field max -nan
attr interpolationmode  none
attr title  "output interface for each routed packet, histogram"
bin	-INF	0
bin	-0.5	0
bin	-0.46666666666667	0
bin	-0.43333333333333	0
bin	-0.4	0
bin	-0.36666666666667	0
bin	-0.33333333333333	0
bin	-0.3	0
bin	-0.26666666666667	0
bin	-0.23333333333333	0
bin	-0.2	0
bin	-0.16666666666667	0
bin	-0.13333333333333	0
bin	-0.1	0
bin	-0.066666666666667	0
bin	-0.033333333333333	0
bin	0	0
bin	0.033333333333333	0
bin	0.066666666666667	0
bin	0.1	0
bin	0.13333333333333	0
bin	0.16666666666667	0
bin	0.2	0
bin	0.23333333333333	0
bin	0.26666666666667	0
bin	0.3	0
bin	0.33333333333333	0
bin	0.36666666666667	0
bin	0.4	0
bin	0.43333333333333	0
bin	0.46666666666667	0
bin	0.5	0
scalar Net60.rte[9].routing 	drop:count 	0
attr interpolationmode  none
attr title  "dropped packet byte length, count"
attr unit  bytes
scalar Net60.rte[9].routing 	drop:sum 	0
attr interpolationmode  none
attr title  "dropped packet byte length, sum"
attr unit  bytes
scalar Net60.rte[9].queue[0] 	rxBytes:count 	0
attr interpolationmode  none
attr title  "received packet byte length, count"
attr unit  bytes
scalar Net60.rte[9].queue[0] 	rxBytes:sum 	0
attr interpolationmode  none
attr title  "received packet byte length, sum"
attr unit  bytes
statistic Net60.rte[9].queue[0] 	rxBytes:histogram
field count 0
field mean -nan
field stddev -nan
field sum 0
field sqrsum 0
field min -nan
field max -nan
attr interpolationmode  none
attr title  "received packet byte length, histogram"
attr unit  bytes
bin	-INF	0
bin	-0.5	0
bin	-0.46666666666667	0
bin	-0.43333333333333	0
bin	-0.4	0
bin	-0.36666666666667	0
bin	-0.33333333333333	0
bin	-0.3	0
bin	-0.26666666666667	0
bin	-0.23333333333333	0
bin	-0.2	0
bin	-0.16666666666667	0
bin	-0.13333333333333	0
bin	-0.1	0
bin	-0.066666666666667	0
bin	-0.033333333333333	0
bin	0	0
bin	0.033333333333333	0
bin	0.066666666666667	0
bin	0.1	0
bin	0.13333333333333	0
bin	0.16666666666667	0
bin	0.2	0
bin	0.23333333333333	0
bin	0.26666666666667	0
bin	0.3	0
bin	0.33333333333333	0
bin	0.36666666666667	0
bin	0.4	0
bin	0.43333333333333	0
bin	0.46666666666667	0
bin	0.5	0
scalar Net60.rte[9].queue[0] 	txBytes:count 	0
attr interpolationmode  none
attr title  "transmitting packet byte length, count"
attr unit  bytes
scalar Net60.rte[9].queue[0] 	txBytes:sum 	0
attr interpolationmode  none
attr title  "transmitting packet byte length, sum"
attr unit  bytes
statistic Net60.rte[9].queue[0] 	txBytes:histogram
field count 0
field mean -nan
field stddev -nan
field sum 0
field sqrsum 0
field min -nan
field max -nan
attr interpolationmode  none
attr title  "transmitting packet byte length, histogram"
attr unit  bytes
bin	-INF	0
bin	-0.5	0
bin	-0.46666666666667	0
bin	-0.43333333333333	0
bin	-0.4	0
bin	-0.36666666666667	0
bin	-0.33333333333333	0
bin	-0.3	0
bin	-0.26666666666667	0
bin	-0.23333333333333	0
bin	-0.2	0
bin	-0.16666666666667	0
bin	-0.13333333333333	0
bin	-0.1	0
bin	-0.066666666666667	0
bin	-0.033333333333333	0
bin	0	0
bin	0.033333333333333	0
bin	0.066666666666667	0
bin	0.1	0
bin	0.13333333333333	0
bin	0.16666666666667	0
bin	0.2	0
bin	0.23333333333333	0
bin	0.26666666666667	0
bin	0.3	0
bin	0.33333333333333	0
bin	0.36666666666667	0
bin	0.4	0
bin	0.43333333333333	0
bin	0.46666666666667	0
bin	0.5	0
scalar Net60.rte[9].queue[0] 	busy:timeavg 	0
attr interpolationmode  sample-hold
attr title  "server busy state, timeavg"
scalar Net60.rte[9].queue[0] 	qlen:timeavg 	0
attr interpolationmode  sample-hold
attr title  "queue length, timeavg"
scalar Net60.rte[9].queue[0] 	qlen:max 	0
attr interpolationmode  sample-hold
attr title  "queue length, max"
scalar Net60.rte[9].queue[0] 	drop:count 	0
attr interpolationmode  none
attr title  "dropped packet byte length, count"
attr unit  bytes
scalar Net60.rte[9].queue[0] 	drop:sum 	0
attr interpolationmode  none
attr title  "dropped packet byte length, sum"
attr unit  bytes
scalar Net60.rte[9].queue[1] 	rxBytes:count 	0
attr interpolationmode  none
attr title  "received packet byte length, count"
attr unit  bytes
scalar Net60.rte[9].queue[1] 	rxBytes:sum 	0
attr interpolationmode  none
attr title  "received packet byte length, sum"
attr unit  bytes
statistic Net60.rte[9].queue[1] 	rxBytes:histogram
field count 0
field mean -nan
field stddev -nan
field sum 0
field sqrsum 0
field min -nan
field max -nan
attr interpolationmode  none
attr title  "received packet byte length, histogram"
attr unit  bytes
bin	-INF	0
bin	-0.5	0
bin	-0.46666666666667	0
bin	-0.43333333333333	0
bin	-0.4	0
bin	-0.36666666666667	0
bin	-0.33333333333333	0
bin	-0.3	0
bin	-0.26666666666667	0
bin	-0.23333333333333	0
bin	-0.2	0
bin	-0.16666666666667	0
bin	-0.13333333333333	0
bin	-0.1	0
bin	-0.066666666666667	0
bin	-0.033333333333333	0
bin	0	0
bin	0.033333333333333	0
bin	0.066666666666667	0
bin	0.1	0
bin	0.13333333333333	0
bin	0.16666666666667	0
bin	0.2	0
bin	0.23333333333333	0
bin	0.26666666666667	0
bin	0.3	0
bin	0.33333333333333	0
bin	0.36666666666667	0
bin	0.4	0
bin	0.43333333333333	0
bin	0.46666666666667	0
bin	0.5	0
[...]
bin	-0.033333333333333	0
bin	0	0
bin	0.033333333333333	0
bin	0.066666666666667	0
bin	0.1	0
bin	0.13333333333333	0
bin	0.16666666666667	0
bin	0.2	0
bin	0.23333333333333	0
bin	0.26666666666667	0
bin	0.3	0
bin	0.33333333333333	0
bin	0.36666666666667	0
bin	0.4	0
bin	0.43333333333333	0
bin	0.46666666666667	0
bin	0.5	0
scalar Net60.rte[54].queue[0] 	txBytes:count 	0
attr interpolationmode  none
attr title  "transmitting packet byte length, count"
attr unit  bytes
scalar Net60.rte[54].queue[0] 	txBytes:sum 	0
attr interpolationmode  none
attr title  "transmitting packet byte length, sum"
attr unit  bytes
statistic Net60.rte[54].queue[0] 	txBytes:histogram
field count 0
field mean -nan
field stddev -nan
field sum 0
field sqrsum 0
field min -nan
field max -nan
attr interpolationmode  none
attr title  "transmitting packet byte length, histogram"
attr unit  bytes
bin	-INF	0
bin	-0.5	0
bin	-0.46666666666667	0
bin	-0.43333333333333	0
bin	-0.4	0
bin	-0.36666666666667	0
bin	-0.33333333333333	0
bin	-0.3	0
bin	-0.26666666666667	0
bin	-0.23333333333333	0
bin	-0.2	0
bin	-0.16666666666667	0
bin	-0.13333333333333	0
bin	-0.1	0
bin	-0.066666666666667	0
bin	-0.033333333333333	0
bin	0	0
bin	0.033333333333333	0
bin	0.066666666666667	0
bin	0.1	0
bin	0.13333333333333	0
bin	0.16666666666667	0
bin	0.2	0
bin	0.23333333333333	0
bin	0.26666666666667	0
bin	0.3	0
bin	0.33333333333333	0
bin	0.36666666666667	0
bin	0.4	0
bin	0.43333333333333	0
bin	0.46666666666667	0
bin	0.5	0
scalar Net60.rte[54].queue[0] 	busy:timeavg 	0
attr interpolationmode  sample-hold
attr title  "server busy state, timeavg"
scalar Net60.rte[54].queue[0] 	qlen:timeavg 	0
attr interpolationmode  sample-hold
attr title  "queue length, timeavg"
scalar Net60.rte[54].queue[0] 	qlen:max 	0
attr interpolationmode  sample-hold
attr title  "queue length, max"
scalar Net60.rte[54].queue[0] 	drop:count 	0
attr interpolationmode  none
attr title  "dropped packet byte length, count"
attr unit  bytes
scalar Net60.rte[54].queue[0] 	drop:sum 	0
attr interpolationmode  none
attr title  "dropped packet byte length, sum"
attr unit  bytes
scalar Net60.rte[54].queue[1] 	rxBytes:count 	0
attr interpolationmode  none
attr title  "received packet byte length, count"
attr unit  bytes
scalar Net60.rte[54].queue[1] 	rxBytes:sum 	0
attr interpolationmode  none
attr title  "received packet byte length, sum"
attr unit  bytes
statistic Net60.rte[54].queue[1] 	rxBytes:histogram
field count 0
field mean -nan
field stddev -nan
field sum 0
field sqrsum 0
field min -nan
field max -nan
attr interpolationmode  none
attr title  "received packet byte length, histogram"
attr unit  bytes
bin	-INF	0
bin	-0.5	0
bin	-0.46666666666667	0
bin	-0.43333333333333	0
bin	-0.4	0
bin	-0.36666666666667	0
bin	-0.33333333333333	0
bin	-0.3	0
bin	-0.26666666666667	0
bin	-0.23333333333333	0
bin	-0.2	0
bin	-0.16666666666667	0
bin	-0.13333333333333	0
bin	-0.1	0
bin	-0.066666666666667	0
bin	-0.033333333333333	0
bin	0	0
bin	0.033333333333333	0
bin	0.066666666666667	0
bin	0.1	0
bin	0.13333333333333	0
bin	0.16666666666667	0
bin	0.2	0
bin	0.23333333333333	0
bin	0.26666666666667	0
bin	0.3	0
bin	0.33333333333333	0
bin	0.36666666666667	0
bin	0.4	0
bin	0.43333333333333	0
bin	0.46666666666667	0
bin	0.5	0
scalar Net60.rte[54].queue[1] 	txBytes:count 	0
attr interpolationmode  none
attr title  "transmitting packet byte length, count"
attr unit  bytes
scalar Net60.rte[54].queue[1] 	txBytes:sum 	0
attr interpolationmode  none
attr title  "transmitting packet byte length, sum"
attr unit  bytes
statistic Net60.rte[54].queue[1] 	txBytes:histogram
field count 0
field mean -nan
field stddev -nan
field sum 0
field sqrsum 0
field min -nan
field max -nan
attr interpolationmode  none
attr title  "transmitting packet byte length, histogram"
attr unit  bytes
bin	-INF	0
bin	-0.5	0
bin	-0.46666666666667	0
bin	-0.43333333333333	0
bin	-0.4	0
bin	-0.36666666666667	0
bin	-0.33333333333333	0
bin	-0.3	0
bin	-0.26666666666667	0
bin	-0.23333333333333	0
bin	-0.2	0
bin	-0.16666666666667	0
bin	-0.13333333333333	0
bin	-0.1	0
bin	-0.066666666666667	0
bin	-0.033333333333333	0
bin	0	0
bin	0.033333333333333	0
bin	0.066666666666667	0
bin	0.1	0
bin	0.13333333333333	0
bin	0.16666666666667	0
bin	0.2	0
bin	0.23333333333333	0
bin	0.26666666666667	0
bin	0.3	0
bin	0.33333333333333	0
bin	0.36666666666667	0
bin	0.4	0
bin	0.43333333333333	0
bin	0.46666666666667	0
bin	0.5	0
scalar Net60.rte[54].queue[1] 	busy:timeavg 	0
attr interpolationmode  sample-hold
attr title  "server busy state, timeavg"
scalar Net60.rte[54].queue[1] 	qlen:timeavg 	0
attr interpolationmode  sample-hold
attr title  "queue length, timeavg"
scalar Net60.rte[54].queue[1] 	qlen:max 	0
attr interpolationmode  sample-hold
attr title  "queue length, max"
scalar Net60.rte[54].queue[1] 	drop:count 	0
attr interpolationmode  none
attr title  "dropped packet byte length, count"
attr unit  bytes
scalar Net60.rte[54].queue[1] 	drop:sum 	0
attr interpolationmode  none
attr title  "dropped packet byte length, sum"
attr unit  bytes
scalar Net60.rte[55].app 	hopCount:mean 	-nan
attr interpolationmode  none
attr title  "hop count of arrived packets, mean"
scalar Net60.rte[55].app 	hopCount:max 	-nan
attr interpolationmode  none
attr title  "hop count of arrived packets, max"
scalar Net60.rte[55].app 	endToEndDelay:mean 	-nan
attr interpolationmode  none
attr title  "end-to-end delay of arrived packets, mean"
attr unit  s
scalar Net60.rte[55].app 	endToEndDelay:max 	-nan
attr interpolationmode  none
attr title  "end-to-end delay of arrived packets, max"
attr unit  s
statistic Net60.rte[55].routing 	outputIf:histogram
field count 0
field mean -nan
field stddev -nan
field sum 0
field sqrsum 0
field min -nan
field max -nan
attr interpolationmode  none
attr title  "output interface for each routed packet, histogram"
bin	-INF	0
bin	-0.5	0
bin	-0.46666666666667	0
bin	-0.43333333333333	0
bin	-0.4	0
bin	-0.36666666666667	0
bin	-0.33333333333333	0
bin	-0.3	0
bin	-0.26666666666667	0
bin	-0.23333333333333	0
bin	-0.2	0
bin	-0.16666666666667	0
bin	-0.13333333333333	0
bin	-0.1	0
bin	-0.066666666666667	0
bin	-0.033333333333333	0
bin	0	0
bin	0.033333333333333	0
bin	0.066666666666667	0
bin	0.1	0
bin	0.13333333333333	0
bin	0.16666666666667	0
bin	0.2	0
bin	0.23333333333333	0
bin	0.26666666666667	0
bin	0.3	0
bin	0.33333333333333	0
bin	0.36666666666667	0
bin	0.4	0
bin	0.43333333333333	0
bin	0.46666666666667	0
bin	0.5	0
scalar Net60.rte[55].routing 	drop:count 	0
attr interpolationmode  none
attr title  "dropped packet byte length, count"
attr unit  bytes
scalar Net60.rte[55].routing 	drop:sum 	0
attr interpolationmode  none
attr title  "dropped packet byte length, sum"
attr unit  bytes
scalar Net60.rte[55].queue[0] 	rxBytes:count 	0
attr interpolationmode  none
attr title  "received packet byte length, count"
attr unit  bytes
scalar Net60.rte[55].queue[0] 	rxBytes:sum 	0
attr interpolationmode  none
attr title  "received packet byte length, sum"
attr unit  bytes
statistic Net60.rte[55].queue[0] 	rxBytes:histogram
field count 0
field mean -nan
field stddev -nan
field sum 0
field sqrsum 0
field min -nan
field max -nan
attr interpolationmode  none
attr title  "received packet byte length, histogram"
attr unit  bytes
bin	-INF	0
bin	-0.5	0
bin	-0.46666666666667	0
bin	-0.43333333333333	0
bin	-0.4	0
bin	-0.36666666666667	0
bin	-0.33333333333333	0
bin	-0.3	0
bin	-0.26666666666667	0
bin	-0.23333333333333	0
bin	-0.2	0
bin	-0.16666666666667	0
bin	-0.13333333333333	0
bin	-0.1	0
bin	-0.066666666666667	0
bin	-0.033333333333333	0
bin	0	0
bin	0.033333333333333	0
bin	0.066666666666667	0
bin	0.1	0
bin	0.13333333333333	0
bin	0.16666666666667	0
bin	0.2	0
bin	0.23333333333333	0
bin	0.26666666666667	0
bin	0.3	0
bin	0.33333333333333	0
bin	0.36666666666667	0
bin	0.4	0
bin	0.43333333333333	0
bin	0.46666666666667	0
bin	0.5	0
scalar Net60.rte[55].queue[0] 	txBytes:count 	0
attr interpolationmode  none
attr title  "transmitting packet byte length, count"
attr unit  bytes
scalar Net60.rte[55].queue[0] 	txBytes:sum 	0
attr interpolationmode  none
attr title  "transmitting packet byte length, sum"
attr unit  bytes
statistic Net60.rte[55].queue[0] 	txBytes:histogram
field count 0
field mean -nan
field stddev -nan
field sum 0
field sqrsum 0
field min -nan
field max -nan
attr interpolationmode  none
attr title  "transmitting packet byte length, histogram"
attr unit  bytes
bin	-INF	0
bin	-0.5	0
bin	-0.46666666666667	0
bin	-0.43333333333333	0
bin	-0.4	0
bin	-0.36666666666667	0
bin	-0.33333333333333	0
bin	-0.3	0
bin	-0.26666666666667	0
bin	-0.23333333333333	0
bin	-0.2	0
bin	-0.16666666666667	0
bin	-0.13333333333333	0
bin	-0.1	0
bin	-0.066666666666667	0
bin	-0.033333333333333	0
bin	0	0
bin	0.033333333333333	0
bin	0.066666666666667	0
bin	0.1	0
bin	0.13333333333333	0
bin	0.16666666666667	0
bin	0.2	0
bin	0.23333333333333	0
bin	0.26666666666667	0
bin	0.3	0
bin	0.33333333333333	0
bin	0.36666666666667	0
bin	0.4	0
bin	0.43333333333333	0
bin	0.46666666666667	0
bin	0.5	0
scalar Net60.rte[55].queue[0] 	busy:timeavg 	0
attr interpolationmode  sample-hold
attr title  "server busy state, timeavg"
scalar Net60.rte[55].queue[0] 	qlen:timeavg 	0
attr interpolationmode  sample-hold
attr title  "queue length, timeavg"
scalar Net60.rte[55].queue[0] 	qlen:max 	0
attr interpolationmode  sample-hold
attr title  "queue length, max"
scalar Net60.rte[55].queue[0] 	drop:count 	0
attr interpolationmode  none
attr title  "dropped packet byte length, count"
attr unit  bytes
scalar Net60.rte[55].queue[0] 	drop:sum 	0
attr interpolationmode  none
attr title  "dropped packet byte length, sum"
attr unit  bytes
scalar Net60.rte[55].queue[1] 	rxBytes:count 	0
attr interpolationmode  none
attr title  "received packet byte length, count"
attr unit  bytes
scalar Net60.rte[55].queue[1] 	rxBytes:sum 	0
attr interpolationmode  none
attr title  "received packet byte length, sum"
attr unit  bytes
statistic Net60.rte[55].queue[1] 	rxBytes:histogram
field count 0
field mean -nan
field stddev -nan
field sum 0
field sqrsum 0
field min -nan
field max -nan
attr interpolationmode  none
attr title  "received packet byte length, histogram"
attr unit  bytes
bin	-INF	0
bin	-0.5	0
bin	-0.46666666666667	0
bin	-0.43333333333333	0
bin	-0.4	0
bin	-0.36666666666667	0
bin	-0.33333333333333	0
bin	-0.3	0
bin	-0.26666666666667	0
bin	-0.23333333333333	0
bin	-0.2	0
bin	-0.16666666666667	0
bin	-0.13333333333333	0
bin	-0.1	0
bin	-0.066666666666667	0
bin	-0.033333333333333	0
bin	0	0
bin	0.033333333333333	0
bin	0.066666666666667	0
bin	0.1	0
bin	0.13333333333333	0
bin	0.16666666666667	0
bin	0.2	0
bin	0.23333333333333	0
bin	0.26666666666667	0
bin	0.3	0
bin	0.33333333333333	0
bin	0.36666666666667	0
bin	0.4	0
bin	0.43333333333333	0
bin	0.46666666666667	0
bin	0.5	0
scalar Net60.rte[55].queue[1] 	txBytes:count 	0
attr interpolationmode  none
attr title  "transmitting packet byte length, count"
attr unit  bytes
scalar Net60.rte[55].queue[1] 	txBytes:sum 	0
attr interpolationmode  none
attr title  "transmitting packet byte length, sum"
attr unit  bytes
statistic Net60.rte[55].queue[1] 	txBytes:histogram
field count 0
field mean -nan
field stddev -nan
field sum 0
field sqrsum 0
field min -nan
field max -nan
attr interpolationmode  none
attr title  "transmitting packet byte length, histogram"
attr unit  bytes
bin	-INF	0
bin	-0.5	0
bin	-0.46666666666667	0
bin	-0.43333333333333	0
bin	-0.4	0
bin	-0.36666666666667	0
bin	-0.33333333333333	0
bin	-0.3	0
bin	-0.26666666666667	0
bin	-0.23333333333333	0
bin	-0.2	0
bin	-0.16666666666667	0
bin	-0.13333333333333	0
bin	-0.1	0
bin	-0.066666666666667	0
bin	-0.033333333333333	0
bin	0	0
bin	0.033333333333333	0
bin	0.066666666666667	0
bin	0.1	0
bin	0.13333333333333	0
bin	0.16666666666667	0
bin	0.2	0
bin	0.23333333333333	0
bin	0.26666666666667	0
bin	0.3	0
bin	0.33333333333333	0
bin	0.36666666666667	0
bin	0.4	0
bin	0.43333333333333	0
bin	0.46666666666667	0
bin	0.5	0
scalar Net60.rte[55].queue[1] 	busy:timeavg 	0
attr interpolationmode  sample-hold
attr title  "server busy state, timeavg"
scalar Net60.rte[55].queue[1] 	qlen:timeavg 	0
attr interpolationmode  sample-hold
attr title  "queue length, timeavg"
scalar Net60.rte[55].queue[1] 	qlen:max 	0
attr interpolationmode  sample-hold
attr title  "queue length, max"
scalar Net60.rte[55].queue[1] 	drop:count 	0
attr interpolationmode  none
attr title  "dropped packet byte length, count"
attr unit  bytes
scalar Net60.rte[55].queue[1] 	drop:sum 	0
attr interpolationmode  none
attr title  "dropped packet byte length, sum"
attr unit  bytes
scalar Net60.rte[56].app 	hopCount:mean 	-nan
attr interpolationmode  none
attr title  "hop count of arrived packets, mean"
scalar Net60.rte[56].app 	hopCount:max 	-nan
attr interpolationmode  none
attr title  "hop count of arrived packets, max"
scalar Net60.rte[56].app 	endToEndDelay:mean 	-nan
attr interpolationmode  none
attr title  "end-to-end delay of arrived packets, mean"
attr unit  s
scalar Net60.rte[56].app 	endToEndDelay:max 	-nan
attr interpolationmode  none
attr title  "end-to-end delay of arrived packets, max"
attr unit  s
statistic Net60.rte[56].routing 	outputIf:histogram
field count 0
field mean -nan
field stddev -nan
field sum 0
field sqrsum 0
field min -nan
field max -nan
attr interpolationmode  none
attr title  "output interface for each routed packet, histogram"
bin	-INF	0
bin	-0.5	0
bin	-0.46666666666667	0
bin	-0.43333333333333	0
bin	-0.4	0
bin	-0.36666666666667	0
bin	-0.33333333333333	0
bin	-0.3	0
bin	-0.26666666666667	0
bin	-0.23333333333333	0
bin	-0.2	0
bin	-0.16666666666667	0
bin	-0.13333333333333	0
bin	-0.1	0
bin	-0.066666666666667	0
bin	-0.033333333333333	0
bin	0	0
bin	0.033333333333333	0
bin	0.066666666666667	0
bin	0.1	0
bin	0.13333333333333	0
bin	0.16666666666667	0
bin	0.2	0
bin	0.23333333333333	0
bin	0.26666666666667	0
bin	0.3	0
bin	0.33333333333333	0
bin	0.36666666666667	0
bin	0.4	0
bin	0.43333333333333	0
bin	0.46666666666667	0
bin	0.5	0
scalar Net60.rte[56].routing 	drop:count 	0
attr interpolationmode  none
attr title  "dropped packet byte length, count"
attr unit  bytes
scalar Net60.rte[56].routing 	drop:sum 	0
attr interpolationmode  none
attr title  "dropped packet byte length, sum"
attr unit  bytes
scalar Net60.rte[56].queue[0] 	rxBytes:count 	0
attr interpolationmode  none
attr title  "received packet byte length, count"
attr unit  bytes
scalar Net60.rte[56].queue[0] 	rxBytes:sum 	0
attr interpolationmode  none
attr title  "received packet byte length, sum"
attr unit  bytes
statistic Net60.rte[56].queue[0] 	rxBytes:histogram
field count 0
field mean -nan
field stddev -nan
field sum 0
field sqrsum 0
field min -nan
field max -nan
attr interpolationmode  none
attr title  "received packet byte length, histogram"
attr unit  bytes
bin	-INF	0
bin	-0.5	0
bin	-0.46666666666667	0
bin	-0.43333333333333	0
bin	-0.4	0
bin	-0.36666666666667	0
bin	-0.33333333333333	0
bin	-0.3	0
bin	-0.26666666666667	0
bin	-0.23333333333333	0
bin	-0.2	0
bin	-0.16666666666667	0
bin	-0.13333333333333	0
bin	-0.1	0
bin	-0.066666666666667	0
bin	-0.033333333333333	0
bin	0	0
bin	0.033333333333333	0
bin	0.066666666666667	0
bin	0.1	0
bin	0.13333333333333	0
bin	0.16666666666667	0
bin	0.2	0
bin	0.23333333333333	0
bin	0.26666666666667	0
bin	0.3	0
bin	0.33333333333333	0
bin	0.36666666666667	0
bin	0.4	0
bin	0.43333333333333	0
bin	0.46666666666667	0
bin	0.5	0
scalar Net60.rte[56].queue[0] 	txBytes:count 	0
attr interpolationmode  none
attr title  "transmitting packet byte length, count"
attr unit  bytes
scalar Net60.rte[56].queue[0] 	txBytes:sum 	0
attr interpolationmode  none
attr title  "transmitting packet byte length, sum"
attr unit  bytes
statistic Net60.rte[56].queue[0] 	txBytes:histogram
field count 0
field mean -nan
field stddev -nan
field sum 0
field sqrsum 0
field min -nan
field max -nan
attr interpolationmode  none
attr title  "transmitting packet byte length, histogram"
attr unit  bytes
bin	-INF	0
bin	-0.5	0
bin	-0.46666666666667	0
bin	-0.43333333333333	0
bin	-0.4	0
bin	-0.36666666666667	0
bin	-0.33333333333333	0
bin	-0.3	0
bin	-0.26666666666667	0
bin	-0.23333333333333	0
bin	-0.2	0
bin	-0.16666666666667	0
bin	-0.13333333333333	0
bin	-0.1	0
bin	-0.066666666666667	0
bin	-0.033333333333333	0
bin	0	0
bin	0.033333333333333	0
bin	0.066666666666667	0
bin	0.1	0
bin	0.13333333333333	0
bin	0.16666666666667	0
bin	0.2	0
bin	0.23333333333333	0
bin	0.26666666666667	0
bin	0.3	0
bin	0.33333333333333	0
bin	0.36666666666667	0
bin	0.4	0
bin	0.43333333333333	0
bin	0.46666666666667	0
bin	0.5	0
scalar Net60.rte[56].queue[0] 	busy:timeavg 	0
attr interpolationmode  sample-hold
attr title  "server busy state, timeavg"
scalar Net60.rte[56].queue[0] 	qlen:timeavg 	0
attr interpolationmode  sample-hold
attr title  "queue length, timeavg"
scalar Net60.rte[56].queue[0] 	qlen:max 	0
attr interpolationmode  sample-hold
attr title  "queue length, max"
scalar Net60.rte[56].queue[0] 	drop:count 	0
attr interpolationmode  none
attr title  "dropped packet byte length, count"
attr unit  bytes
scalar Net60.rte[56].queue[0] 	drop:sum 	0
attr interpolationmode  none
attr title  "dropped packet byte length, sum"
attr unit  bytes
scalar Net60.rte[56].queue[1] 	rxBytes:count 	0
attr interpolationmode  none
attr title  "received packet byte length, count"
attr unit  bytes
scalar Net60.rte[56].queue[1] 	rxBytes:sum 	0
attr interpolationmode  none
attr title  "received packet byte length, sum"
attr unit  bytes
statistic Net60.rte[56].queue[1] 	rxBytes:histogram
field count 0
field mean -nan
field stddev -nan
field sum 0
field sqrsum 0
field min -nan
field max -nan
attr interpolationmode  none
attr title  "received packet byte length, histogram"
attr unit  bytes
bin	-INF	0
bin	-0.5	0
bin	-0.46666666666667	0
bin	-0.43333333333333	0
bin	-0.4	0
bin	-0.36666666666667	0
bin	-0.33333333333333	0
bin	-0.3	0
bin	-0.26666666666667	0
bin	-0.23333333333333	0
bin	-0.2	0
bin	-0.16666666666667	0
bin	-0.13333333333333	0
bin	-0.1	0
bin	-0.066666666666667	0
bin	-0.033333333333333	0
bin	0	0
bin	0.033333333333333	0
bin	0.066666666666667	0
bin	0.1	0
bin	0.13333333333333	0
bin	0.16666666666667	0
bin	0.2	0
bin	0.23333333333333	0
bin	0.26666666666667	0
bin	0.3	0
bin	0.33333333333333	0
bin	0.36666666666667	0
bin	0.4	0
bin	0.43333333333333	0
bin	0.46666666666667	0
bin	0.5	0
scalar Net60.rte[56].queue[1] 	txBytes:count 	0
attr interpolationmode  none
attr title  "transmitting packet byte length, count"
attr unit  bytes
scalar Net60.rte[56].queue[1] 	txBytes:sum 	0
attr interpolationmode  none
attr title  "transmitting packet byte length, sum"
attr unit  bytes
statistic Net60.rte[56].queue[1] 	txBytes:histogram
field count 0
field mean -nan
field stddev -nan
field sum 0
field sqrsum 0
field min -nan
field max -nan
attr interpolationmode  none
attr title  "transmitting packet byte length, histogram"
attr unit  bytes
bin	-INF	0
bin	-0.5	0
bin	-0.46666666666667	0
bin	-0.43333333333333	0
bin	-0.4	0
bin	-0.36666666666667	0
bin	-0.33333333333333	0
bin	-0.3	0
bin	-0.26666666666667	0
bin	-0.23333333333333	0
bin	-0.2	0
bin	-0.16666666666667	0
bin	-0.13333333333333	0
bin	-0.1	0
bin	-0.066666666666667	0
bin	-0.033333333333333	0
bin	0	0
bin	0.033333333333333	0
bin	0.066666666666667	0
bin	0.1	0
bin	0.13333333333333	0
bin	0.16666666666667	0
bin	0.2	0
bin	0.23333333333333	0
bin	0.26666666666667	0
bin	0.3	0
bin	0.33333333333333	0
bin	0.36666666666667	0
bin	0.4	0
bin	0.43333333333333	0
bin	0.46666666666667	0
bin	0.5	0
scalar Net60.rte[56].queue[1] 	busy:timeavg 	0
attr interpolationmode  sample-hold
attr title  "server busy state, timeavg"
scalar Net60.rte[56].queue[1] 	qlen:timeavg 	0
attr interpolationmode  sample-hold
attr title  "queue length, timeavg"
scalar Net60.rte[56].queue[1] 	qlen:max 	0
attr interpolationmode  sample-hold
attr title  "queue length, max"
scalar Net60.rte[56].queue[1] 	drop:count 	0
attr interpolationmode  none
attr title  "dropped packet byte length, count"
attr unit  bytes
scalar Net60.rte[56].queue[1] 	drop:sum 	0
attr interpolationmode  none
attr title  "dropped packet byte length, sum"
attr unit  bytes
