file 16115621 1512845989                                        
version 2
run Net9-0-20171209-13:58:28-6638
attr configname Net9
attr datetime 20171209-13:58:28
attr experiment Net9
attr inifile omnetpp.ini
attr iterationvars ""
attr iterationvarsf ""
attr measurement ""
attr network networks.Net9
attr processid 6638
attr repetition 0
attr replication #0
attr resultdir results
attr runnumber 0
attr seedset 0
param **.app.packetLength "1024 bytes"
param **.appType "\"App\""
param **.destAddresses "\"0 1 2 3\""
param **.sendIaTime exponential(10ms)

vector 0  Net9.people[0].app  endToEndDelay:vector  ETV
attr interpolationmode  none
attr title  "end-to-end delay of arrived packets, vector"
attr unit  s
vector 3  Net9.grid[0].app  endToEndDelay:vector  ETV
attr interpolationmode  none
attr title  "end-to-end delay of arrived packets, vector"
attr unit  s
vector 1  Net9.people[1].app  endToEndDelay:vector  ETV
attr interpolationmode  none
attr title  "end-to-end delay of arrived packets, vector"
attr unit  s
vector 2  Net9.people[2].app  endToEndDelay:vector  ETV
attr interpolationmode  none
attr title  "end-to-end delay of arrived packets, vector"
attr unit  s
1	1112 1532282 34 2538390 0.018755668149 511.784609603885 43690 0 305.19314391094 816747.51991363 167281056.42572
0	1533394 1523580 16 2540863 0.016414603137 512.280585082748 43690 0 305.49988043963 790519.75779433 160177275.84209
2	3056974 1517139 80 2545422 0.035036611552 513.171090946567 43690 0 306.13983011497 787624.11446508 160126938.83261
3	4574113 1578553 31 3889558 0.018596042121 785.086113603885 43690 0 468.4535821641 5616886.7827224 1757746676.4447
2	6152666 1545811 2545446 5070987 513.176301773128 1023.996735413129 43690 0 610.50548160241 2343541.2046802 1113880329.8439
0	7698477 1557645 2540896 5072508 512.283789248712 1024.31129720646 43690 0 610.68240121667 2478694.8223673 1172496280.0064
1	9256122 1563029 2538707 5096665 511.852881741363 1029.221559483636 43690 0 613.43404511648 2351265.2973028 1119930724.1175
0	10819151 1325344 5072549 7159758 1024.31948920646 1446.850430323428 36272 0 863.01003173934 3160108.0156966 2353888907.4774
1	12144495 1290340 5096672 7159776 1029.224097603885 1446.854263872515 35147 0 863.03170852059 3134787.1113429 2336353710.495
2	13434835 1312079 5071045 7159779 1024.009973105171 1446.855042106314 36093 0 863.05209274023 3187570.9980019 2373151811.6491
3	14746914 1368707 3889739 7159652 785.118881603885 1446.835873603885 36735 0 861.21110641656 13428933.188409 9190636242.418
