version 2
run NetBuilder-0-20171209-14:03:29-6677
attr configname NetBuilder
attr datetime 20171209-14:03:29
attr experiment NetBuilder
attr inifile omnetpp.ini
attr iterationvars ""
attr iterationvarsf ""
attr measurement ""
attr network networks.Dynamic
attr processid 6677
attr repetition 0
attr replication #0
attr resultdir results
attr runnumber 0
attr seedset 0
param **.address "int(replace(fullName(), \"node\", \"\"))"
param **.app.packetLength "1024 bytes"
param **.appType "\"App\""
param **.behavior "int(replace(fullName(), \"node\", \"\"))%10"
param **.destAddresses "\"10 20 30 40 50 60 70 80 90 100 110 120 130 140 150 160 170 180 190 210 220 230 250 260 270 280 290 300 310 320 451 461 471 481 491 501 511 531 541 551 561\""

scalar Dynamic.node10.app 	hopCount:mean 	6.5997942386831
attr interpolationmode  none
attr title  "hop count of arrived packets, mean"
scalar Dynamic.node10.app 	hopCount:max 	12
attr interpolationmode  none
attr title  "hop count of arrived packets, max"
scalar Dynamic.node10.app 	endToEndDelay:mean 	0.12052056981575
attr interpolationmode  none
attr title  "end-to-end delay of arrived packets, mean"
attr unit  s
scalar Dynamic.node10.app 	endToEndDelay:max 	0.235770751206
attr interpolationmode  none
attr title  "end-to-end delay of arrived packets, max"
attr unit  s
statistic Dynamic.node10.routing 	outputIf:histogram
field count 3813
field mean 0.24101757146604
field stddev 0.8324329460126
field sum 919
field sqrsum 2863
field min -1
field max 1
attr interpolationmode  none
attr title  "output interface for each routed packet, histogram"
bin	-INF	0
bin	-2	0
bin	-1	972
bin	0	950
bin	1	1891
bin	2	0
scalar Dynamic.node10.routing 	drop:count 	0
attr interpolationmode  none
attr title  "dropped packet byte length, count"
attr unit  bytes
scalar Dynamic.node10.routing 	drop:sum 	0
attr interpolationmode  none
attr title  "dropped packet byte length, sum"
attr unit  bytes
scalar Dynamic.node10.queue[0] 	rxBytes:count 	992
attr interpolationmode  none
attr title  "received packet byte length, count"
attr unit  bytes
scalar Dynamic.node10.queue[0] 	rxBytes:sum 	1015808
attr interpolationmode  none
attr title  "received packet byte length, sum"
attr unit  bytes
statistic Dynamic.node10.queue[0] 	rxBytes:histogram
field count 992
field mean 1024
field stddev 0
field sum 1015808
field sqrsum 1040187392
field min 1024
field max 1024
attr interpolationmode  none
attr title  "received packet byte length, histogram"
attr unit  bytes
bin	-INF	0
bin	1023	0
bin	1024	992
bin	1025	0
scalar Dynamic.node10.queue[0] 	txBytes:count 	950
attr interpolationmode  none
attr title  "transmitting packet byte length, count"
attr unit  bytes
scalar Dynamic.node10.queue[0] 	txBytes:sum 	972800
attr interpolationmode  none
attr title  "transmitting packet byte length, sum"
attr unit  bytes
statistic Dynamic.node10.queue[0] 	txBytes:histogram
field count 950
field mean 1024
field stddev 0
field sum 972800
field sqrsum 996147200
field min 1024
field max 1024
attr interpolationmode  none
attr title  "transmitting packet byte length, histogram"
attr unit  bytes
bin	-INF	0
bin	1023	0
bin	1024	950
bin	1025	0
scalar Dynamic.node10.queue[0] 	busy:timeavg 	0.0081650640376114
attr interpolationmode  sample-hold
attr title  "server busy state, timeavg"
scalar Dynamic.node10.queue[0] 	qlen:timeavg 	0
attr interpolationmode  sample-hold
attr title  "queue length, timeavg"
scalar Dynamic.node10.queue[0] 	qlen:max 	0
attr interpolationmode  sample-hold
attr title  "queue length, max"
scalar Dynamic.node10.queue[0] 	drop:count 	0
attr interpolationmode  none
attr title  "dropped packet byte length, count"
attr unit  bytes
scalar Dynamic.node10.queue[0] 	drop:sum 	0
attr interpolationmode  none
attr title  "dropped packet byte length, sum"
attr unit  bytes
scalar Dynamic.node10.queue[1] 	rxBytes:count 	1829
attr interpolationmode  none
attr title  "received packet byte length, count"
attr unit  bytes
scalar Dynamic.node10.queue[1] 	rxBytes:sum 	1872896
attr interpolationmode  none
attr title  "received packet byte length, sum"
attr unit  bytes
statistic Dynamic.node10.queue[1] 	rxBytes:histogram
field count 1829
field mean 1024
field stddev 0
field sum 1872896
field sqrsum 1917845504
field min 1024
field max 1024
attr interpolationmode  none
attr title  "received packet byte length, histogram"
attr unit  bytes
bin	-INF	0
bin	1023	0
bin	1024	1829
bin	1025	0
scalar Dynamic.node10.queue[1] 	txBytes:count 	1891
attr interpolationmode  none
attr title  "transmitting packet byte length, count"
attr unit  bytes
scalar Dynamic.node10.queue[1] 	txBytes:sum 	1936384
attr interpolationmode  none
attr title  "transmitting packet byte length, sum"
attr unit  bytes
statistic Dynamic.node10.queue[1] 	txBytes:histogram
field count 1891
field mean 1024
field stddev 0
field sum 1936384
field sqrsum 1982857216
field min 1024
field max 1024
attr interpolationmode  none
attr title  "transmitting packet byte length, histogram"
attr unit  bytes
bin	-INF	0
bin	1023	0
bin	1024	1891
bin	1025	0
scalar Dynamic.node10.queue[1] 	busy:timeavg 	0.016266805737753
attr interpolationmode  sample-hold
attr title  "server busy state, timeavg"
scalar Dynamic.node10.queue[1] 	qlen:timeavg 	0.00013065826967013
attr interpolationmode  sample-hold
attr title  "queue length, timeavg"
scalar Dynamic.node10.queue[1] 	qlen:max 	1
attr interpolationmode  sample-hold
attr title  "queue length, max"
scalar Dynamic.node10.queue[1] 	drop:count 	0
attr interpolationmode  none
attr title  "dropped packet byte length, count"
attr unit  bytes
scalar Dynamic.node10.queue[1] 	drop:sum 	0
attr interpolationmode  none
attr title  "dropped packet byte length, sum"
attr unit  bytes
scalar Dynamic.node20.app 	hopCount:mean 	7.9120082815735
attr interpolationmode  none
attr title  "hop count of arrived packets, mean"
scalar Dynamic.node20.app 	hopCount:max 	13
attr interpolationmode  none
attr title  "hop count of arrived packets, max"
scalar Dynamic.node20.app 	endToEndDelay:mean 	0.14434236019578
attr interpolationmode  none
attr title  "end-to-end delay of arrived packets, mean"
attr unit  s
scalar Dynamic.node20.app 	endToEndDelay:max 	0.249069492301
attr interpolationmode  none
attr title  "end-to-end delay of arrived packets, max"
attr unit  s
statistic Dynamic.node20.routing 	outputIf:histogram
field count 1958
field mean -0.49336057201226
field stddev 0.50008363502673
field sum -966
field sqrsum 966
field min -1
field max 0
attr interpolationmode  none
attr title  "output interface for each routed packet, histogram"
bin	-INF	0
bin	-2	0
bin	-1	966
bin	0	992
bin	1	0
scalar Dynamic.node20.routing 	drop:count 	0
attr interpolationmode  none
attr title  "dropped packet byte length, count"
attr unit  bytes
scalar Dynamic.node20.routing 	drop:sum 	0
attr interpolationmode  none
attr title  "dropped packet byte length, sum"
attr unit  bytes
scalar Dynamic.node20.queue[0] 	rxBytes:count 	949
attr interpolationmode  none
attr title  "received packet byte length, count"
attr unit  bytes
scalar Dynamic.node20.queue[0] 	rxBytes:sum 	971776
attr interpolationmode  none
attr title  "received packet byte length, sum"
attr unit  bytes
statistic Dynamic.node20.queue[0] 	rxBytes:histogram
field count 949
field mean 1024
field stddev 0
field sum 971776
field sqrsum 995098624
field min 1024
field max 1024
attr interpolationmode  none
attr title  "received packet byte length, histogram"
attr unit  bytes
bin	-INF	0
bin	1023	0
bin	1024	949
bin	1025	0
scalar Dynamic.node20.queue[0] 	txBytes:count 	992
attr interpolationmode  none
attr title  "transmitting packet byte length, count"
attr unit  bytes
scalar Dynamic.node20.queue[0] 	txBytes:sum 	1015808
attr interpolationmode  none
attr title  "transmitting packet byte length, sum"
attr unit  bytes
statistic Dynamic.node20.queue[0] 	txBytes:histogram
field count 992
field mean 1024
field stddev 0
field sum 1015808
field sqrsum 1040187392
field min 1024
field max 1024
attr interpolationmode  none
attr title  "transmitting packet byte length, histogram"
attr unit  bytes
bin	-INF	0
bin	1023	0
bin	1024	992
bin	1025	0
scalar Dynamic.node20.queue[0] 	busy:timeavg 	0.0085334062886578
attr interpolationmode  sample-hold
attr title  "server busy state, timeavg"
scalar Dynamic.node20.queue[0] 	qlen:timeavg 	2.509055052173e-05
attr interpolationmode  sample-hold
attr title  "queue length, timeavg"
scalar Dynamic.node20.queue[0] 	qlen:max 	1
attr interpolationmode  sample-hold
attr title  "queue length, max"
scalar Dynamic.node20.queue[0] 	drop:count 	0
attr interpolationmode  none
attr title  "dropped packet byte length, count"
attr unit  bytes
scalar Dynamic.node20.queue[0] 	drop:sum 	0
attr interpolationmode  none
attr title  "dropped packet byte length, sum"
attr unit  bytes
scalar Dynamic.node30.app 	hopCount:mean 	6.6633663366337
attr interpolationmode  none
attr title  "hop count of arrived packets, mean"
scalar Dynamic.node30.app 	hopCount:max 	12
attr interpolationmode  none
attr title  "hop count of arrived packets, max"
scalar Dynamic.node30.app 	endToEndDelay:mean 	0.12179411644549
attr interpolationmode  none
attr title  "end-to-end delay of arrived packets, mean"
attr unit  s
scalar Dynamic.node30.app 	endToEndDelay:max 	0.231442919249
attr interpolationmode  none
attr title  "end-to-end delay of arrived packets, max"
attr unit  s
statistic Dynamic.node30.routing 	outputIf:histogram
field count 1815
field mean -0.50082644628099
field stddev 0.50013711478861
field sum -909
field sqrsum 909
field min -1
field max 0
attr interpolationmode  none
attr title  "output interface for each routed packet, histogram"
bin	-INF	0
bin	-2	0
bin	-1	909
bin	0	906
bin	1	0
scalar Dynamic.node30.routing 	drop:count 	0
attr interpolationmode  none
attr title  "dropped packet byte length, count"
attr unit  bytes
scalar Dynamic.node30.routing 	drop:sum 	0
attr interpolationmode  none
attr title  "dropped packet byte length, sum"
attr unit  bytes
scalar Dynamic.node30.queue[0] 	rxBytes:count 	883
attr interpolationmode  none
attr title  "received packet byte length, count"
attr unit  bytes
scalar Dynamic.node30.queue[0] 	rxBytes:sum 	904192
attr interpolationmode  none
attr title  "received packet byte length, sum"
attr unit  bytes
statistic Dynamic.node30.queue[0] 	rxBytes:histogram
field count 883
field mean 1024
field stddev 0
field sum 904192
field sqrsum 925892608
field min 1024
field max 1024
attr interpolationmode  none
attr title  "received packet byte length, histogram"
attr unit  bytes
bin	-INF	0
bin	1023	0
bin	1024	883
bin	1025	0
scalar Dynamic.node30.queue[0] 	txBytes:count 	906
attr interpolationmode  none
attr title  "transmitting packet byte length, count"
attr unit  bytes
scalar Dynamic.node30.queue[0] 	txBytes:sum 	927744
attr interpolationmode  none
attr title  "transmitting packet byte length, sum"
attr unit  bytes
statistic Dynamic.node30.queue[0] 	txBytes:histogram
field count 906
field mean 1024
field stddev 0
field sum 927744
field sqrsum 950009856
field min 1024
field max 1024
attr interpolationmode  none
attr title  "transmitting packet byte length, histogram"
attr unit  bytes
bin	-INF	0
bin	1023	0
bin	1024	906
bin	1025	0
scalar Dynamic.node30.queue[0] 	busy:timeavg 	0.0077936150176653
attr interpolationmode  sample-hold
attr title  "server busy state, timeavg"
scalar Dynamic.node30.queue[0] 	qlen:timeavg 	3.005437269408e-05
attr interpolationmode  sample-hold
attr title  "queue length, timeavg"
scalar Dynamic.node30.queue[0] 	qlen:max 	1
attr interpolationmode  sample-hold
attr title  "queue length, max"
scalar Dynamic.node30.queue[0] 	drop:count 	0
attr interpolationmode  none
attr title  "dropped packet byte length, count"
attr unit  bytes
scalar Dynamic.node30.queue[0] 	drop:sum 	0
attr interpolationmode  none
attr title  "dropped packet byte length, sum"
attr unit  bytes
scalar Dynamic.node40.app 	hopCount:mean 	5.8567103935419
attr interpolationmode  none
attr title  "hop count of arrived packets, mean"
scalar Dynamic.node40.app 	hopCount:max 	11
attr interpolationmode  none
attr title  "hop count of arrived packets, max"
scalar Dynamic.node40.app 	endToEndDelay:mean 	0.10701211780536
attr interpolationmode  none
attr title  "end-to-end delay of arrived packets, mean"
attr unit  s
scalar Dynamic.node40.app 	endToEndDelay:max 	0.212226868674
attr interpolationmode  none
attr title  "end-to-end delay of arrived packets, max"
attr unit  s
statistic Dynamic.node40.routing 	outputIf:histogram
field count 8058
field mean 1.2017870439315
field stddev 1.2734529033125
field sum 9684
field sqrsum 24704
field min -1
field max 3
attr interpolationmode  none
attr title  "output interface for each routed packet, histogram"
bin	-INF	0
bin	-3	0
bin	-2	0
bin	-1	991
bin	0	1829
bin	1	883
bin	2	3273
bin	3	1082
bin	4	0
bin	5	0
scalar Dynamic.node40.routing 	drop:count 	0
attr interpolationmode  none
attr title  "dropped packet byte length, count"
attr unit  bytes
scalar Dynamic.node40.routing 	drop:sum 	0
attr interpolationmode  none
attr title  "dropped packet byte length, sum"
attr unit  bytes
scalar Dynamic.node40.queue[0] 	rxBytes:count 	1891
attr interpolationmode  none
attr title  "received packet byte length, count"
attr unit  bytes
scalar Dynamic.node40.queue[0] 	rxBytes:sum 	1936384
attr interpolationmode  none
attr title  "received packet byte length, sum"
attr unit  bytes
statistic Dynamic.node40.queue[0] 	rxBytes:histogram
field count 1891
field mean 1024
field stddev 0
field sum 1936384
field sqrsum 1982857216
field min 1024
field max 1024
attr interpolationmode  none
attr title  "received packet byte length, histogram"
attr unit  bytes
bin	-INF	0
bin	1023	0
bin	1024	1891
bin	1025	0
scalar Dynamic.node40.queue[0] 	txBytes:count 	1829
attr interpolationmode  none
attr title  "transmitting packet byte length, count"
attr unit  bytes
scalar Dynamic.node40.queue[0] 	txBytes:sum 	1872896
attr interpolationmode  none
attr title  "transmitting packet byte length, sum"
attr unit  bytes
statistic Dynamic.node40.queue[0] 	txBytes:histogram
field count 1829
field mean 1024
field stddev 0
field sum 1872896
field sqrsum 1917845504
field min 1024
field max 1024
attr interpolationmode  none
attr title  "transmitting packet byte length, histogram"
attr unit  bytes
bin	-INF	0
bin	1023	0
bin	1024	1829
bin	1025	0
scalar Dynamic.node40.queue[0] 	busy:timeavg 	0.015733467844712
attr interpolationmode  sample-hold
attr title  "server busy state, timeavg"
scalar Dynamic.node40.queue[0] 	qlen:timeavg 	2.3948421423398e-05
attr interpolationmode  sample-hold
attr title  "queue length, timeavg"
scalar Dynamic.node40.queue[0] 	qlen:max 	1
attr interpolationmode  sample-hold
attr title  "queue length, max"
scalar Dynamic.node40.queue[0] 	drop:count 	0
attr interpolationmode  none
attr title  "dropped packet byte length, count"
attr unit  bytes
scalar Dynamic.node40.queue[0] 	drop:sum 	0
attr interpolationmode  none
attr title  "dropped packet byte length, sum"
attr unit  bytes
scalar Dynamic.node40.queue[1] 	rxBytes:count 	906
attr interpolationmode  none
attr title  "received packet byte length, count"
attr unit  bytes
scalar Dynamic.node40.queue[1] 	rxBytes:sum 	927744
attr interpolationmode  none
attr title  "received packet byte length, sum"
attr unit  bytes
statistic Dynamic.node40.queue[1] 	rxBytes:histogram
field count 906
field mean 1024
field stddev 0
field sum 927744
field sqrsum 950009856
field min 1024
field max 1024
attr interpolationmode  none
attr title  "received packet byte length, histogram"
attr unit  bytes
bin	-INF	0
bin	1023	0
bin	1024	906
bin	1025	0
scalar Dynamic.node40.queue[1] 	txBytes:count 	883
attr interpolationmode  none
attr title  "transmitting packet byte length, count"
attr unit  bytes
scalar Dynamic.node40.queue[1] 	txBytes:sum 	904192
attr interpolationmode  none
attr title  "transmitting packet byte length, sum"
attr unit  bytes
statistic Dynamic.node40.queue[1] 	txBytes:histogram
field count 883
field mean 1024
field stddev 0
field sum 904192
field sqrsum 925892608
field min 1024
field max 1024
attr interpolationmode  none
attr title  "transmitting packet byte length, histogram"
attr unit  bytes
bin	-INF	0
bin	1023	0
bin	1024	883
bin	1025	0
scalar Dynamic.node40.queue[1] 	busy:timeavg 	0.0075957638637952
attr interpolationmode  sample-hold
attr title  "server busy state, timeavg"
scalar Dynamic.node40.queue[1] 	qlen:timeavg 	3.0061315845047e-05
attr interpolationmode  sample-hold
attr title  "queue length, timeavg"
scalar Dynamic.node40.queue[1] 	qlen:max 	1
attr interpolationmode  sample-hold
attr title  "queue length, max"
scalar Dynamic.node40.queue[1] 	drop:count 	0
attr interpolationmode  none
attr title  "dropped packet byte length, count"
attr unit  bytes
scalar Dynamic.node40.queue[1] 	drop:sum 	0
attr interpolationmode  none
attr title  "dropped packet byte length, sum"
attr unit  bytes
scalar Dynamic.node40.queue[2] 	rxBytes:count 	3223
attr interpolationmode  none
attr title  "received packet byte length, count"
attr unit  bytes
scalar Dynamic.node40.queue[2] 	rxBytes:sum 	3300352
attr interpolationmode  none
attr title  "received packet byte length, sum"
attr unit  bytes
statistic Dynamic.node40.queue[2] 	rxBytes:histogram
field count 3223
field mean 1024
field stddev 0
field sum 3300352
field sqrsum 3379560448
field min 1024
field max 1024
attr interpolationmode  none
attr title  "received packet byte length, histogram"
attr unit  bytes
bin	-INF	0
bin	1023	0
bin	1024	3223
bin	1025	0
scalar Dynamic.node40.queue[2] 	txBytes:count 	3273
attr interpolationmode  none
attr title  "transmitting packet byte length, count"
attr unit  bytes
scalar Dynamic.node40.queue[2] 	txBytes:sum 	3351552
attr interpolationmode  none
attr title  "transmitting packet byte length, sum"
attr unit  bytes
statistic Dynamic.node40.queue[2] 	txBytes:histogram
field count 3273
field mean 1024
field stddev 0
field sum 3351552
field sqrsum 3431989248
field min 1024
field max 1024
attr interpolationmode  none
attr title  "transmitting packet byte length, histogram"
attr unit  bytes
bin	-INF	0
bin	1023	0
bin	1024	3273
bin	1025	0
scalar Dynamic.node40.queue[2] 	busy:timeavg 	0.028155079418122
attr interpolationmode  sample-hold
attr title  "server busy state, timeavg"
scalar Dynamic.node40.queue[2] 	qlen:timeavg 	0.00027600048168833
attr interpolationmode  sample-hold
attr title  "queue length, timeavg"
scalar Dynamic.node40.queue[2] 	qlen:max 	2
attr interpolationmode  sample-hold
attr title  "queue length, max"
scalar Dynamic.node40.queue[2] 	drop:count 	0
attr interpolationmode  none
attr title  "dropped packet byte length, count"
attr unit  bytes
scalar Dynamic.node40.queue[2] 	drop:sum 	0
attr interpolationmode  none
attr title  "dropped packet byte length, sum"
attr unit  bytes
scalar Dynamic.node40.queue[3] 	rxBytes:count 	1093
attr interpolationmode  none
attr title  "received packet byte length, count"
attr unit  bytes
scalar Dynamic.node40.queue[3] 	rxBytes:sum 	1119232
attr interpolationmode  none
attr title  "received packet byte length, sum"
attr unit  bytes
statistic Dynamic.node40.queue[3] 	rxBytes:histogram
field count 1093
field mean 1024
field stddev 0
field sum 1119232
field sqrsum 1146093568
field min 1024
field max 1024
attr interpolationmode  none
attr title  "received packet byte length, histogram"
attr unit  bytes
bin	-INF	0
bin	1023	0
bin	1024	1093
bin	1025	0
scalar Dynamic.node40.queue[3] 	txBytes:count 	1082
attr interpolationmode  none
attr title  "transmitting packet byte length, count"
attr unit  bytes
scalar Dynamic.node40.queue[3] 	txBytes:sum 	1107968
attr interpolationmode  none
attr title  "transmitting packet byte length, sum"
attr unit  bytes
statistic Dynamic.node40.queue[3] 	txBytes:histogram
field count 1082
field mean 1024
field stddev 0
field sum 1107968
field sqrsum 1134559232
field min 1024
field max 1024
attr interpolationmode  none
attr title  "transmitting packet byte length, histogram"
attr unit  bytes
bin	-INF	0
bin	1023	0
bin	1024	1082
bin	1025	0
scalar Dynamic.node40.queue[3] 	busy:timeavg 	0.0093076064559755
attr interpolationmode  sample-hold
attr title  "server busy state, timeavg"
scalar Dynamic.node40.queue[3] 	qlen:timeavg 	4.135633772759e-05
attr interpolationmode  sample-hold
attr title  "queue length, timeavg"
scalar Dynamic.node40.queue[3] 	qlen:max 	2
attr interpolationmode  sample-hold
attr title  "queue length, max"
scalar Dynamic.node40.queue[3] 	drop:count 	0
attr interpolationmode  none
attr title  "dropped packet byte length, count"
attr unit  bytes
scalar Dynamic.node40.queue[3] 	drop:sum 	0
attr interpolationmode  none
attr title  "dropped packet byte length, sum"
attr unit  bytes
scalar Dynamic.node50.app 	hopCount:mean 	5.3200419727177
attr interpolationmode  none
attr title  "hop count of arrived packets, mean"
scalar Dynamic.node50.app 	hopCount:max 	10
attr interpolationmode  none
attr title  "hop count of arrived packets, max"
scalar Dynamic.node50.app 	endToEndDelay:mean 	0.097183692511518
attr interpolationmode  none
attr title  "end-to-end delay of arrived packets, mean"
attr unit  s
scalar Dynamic.node50.app 	endToEndDelay:max 	0.196801443007
attr interpolationmode  none
attr title  "end-to-end delay of arrived packets, max"
attr unit  s
statistic Dynamic.node50.routing 	outputIf:histogram
field count 9038
field mean 0.88304934720071
field stddev 1.1024424461746
field sum 7981
field sqrsum 18031
field min -1
field max 2
attr interpolationmode  none
attr title  "output interface for each routed packet, histogram"
bin	-INF	0
bin	-3	0
bin	-2	0
bin	-1	953
bin	0	3223
bin	1	790
bin	2	4072
bin	3	0
bin	4	0
scalar Dynamic.node50.routing 	drop:count 	0
attr interpolationmode  none
attr title  "dropped packet byte length, count"
attr unit  bytes
scalar Dynamic.node50.routing 	drop:sum 	0
attr interpolationmode  none
attr title  "dropped packet byte length, sum"
attr unit  bytes
scalar Dynamic.node50.queue[0] 	rxBytes:count 	3273
attr interpolationmode  none
attr title  "received packet byte length, count"
attr unit  bytes
scalar Dynamic.node50.queue[0] 	rxBytes:sum 	3351552
attr interpolationmode  none
attr title  "received packet byte length, sum"
attr unit  bytes
statistic Dynamic.node50.queue[0] 	rxBytes:histogram
field count 3273
field mean 1024
field stddev 0
field sum 3351552
field sqrsum 3431989248
field min 1024
field max 1024
attr interpolationmode  none
attr title  "received packet byte length, histogram"
attr unit  bytes
bin	-INF	0
bin	1023	0
bin	1024	3273
bin	1025	0
scalar Dynamic.node50.queue[0] 	txBytes:count 	3223
attr interpolationmode  none
attr title  "transmitting packet byte length, count"
attr unit  bytes
scalar Dynamic.node50.queue[0] 	txBytes:sum 	3300352
attr interpolationmode  none
attr title  "transmitting packet byte length, sum"
attr unit  bytes
statistic Dynamic.node50.queue[0] 	txBytes:histogram
field count 3223
field mean 1024
field stddev 0
field sum 3300352
field sqrsum 3379560448
field min 1024
field max 1024
attr interpolationmode  none
attr title  "transmitting packet byte length, histogram"
attr unit  bytes
bin	-INF	0
bin	1023	0
bin	1024	3223
bin	1025	0
scalar Dynamic.node50.queue[0] 	busy:timeavg 	0.027724968214057
attr interpolationmode  sample-hold
attr title  "server busy state, timeavg"
scalar Dynamic.node50.queue[0] 	qlen:timeavg 	0.00012082283701453
attr interpolationmode  sample-hold
attr title  "queue length, timeavg"
scalar Dynamic.node50.queue[0] 	qlen:max 	1
attr interpolationmode  sample-hold
attr title  "queue length, max"
scalar Dynamic.node50.queue[0] 	drop:count 	0
attr interpolationmode  none
attr title  "dropped packet byte length, count"
attr unit  bytes
scalar Dynamic.node50.queue[0] 	drop:sum 	0
attr interpolationmode  none
attr title  "dropped packet byte length, sum"
attr unit  bytes
scalar Dynamic.node50.queue[1] 	rxBytes:count 	818
attr interpolationmode  none
attr title  "received packet byte length, count"
attr unit  bytes
scalar Dynamic.node50.queue[1] 	rxBytes:sum 	837632
attr interpolationmode  none
attr title  "received packet byte length, sum"
attr unit  bytes
statistic Dynamic.node50.queue[1] 	rxBytes:histogram
field count 818
field mean 1024
field stddev 0
field sum 837632
field sqrsum 857735168
field min 1024
field max 1024
attr interpolationmode  none
attr title  "received packet byte length, histogram"
attr unit  bytes
bin	-INF	0
bin	1023	0
bin	1024	818
bin	1025	0
scalar Dynamic.node50.queue[1] 	txBytes:count 	790
attr interpolationmode  none
attr title  "transmitting packet byte length, count"
attr unit  bytes
scalar Dynamic.node50.queue[1] 	txBytes:sum 	808960
attr interpolationmode  none
attr title  "transmitting packet byte length, sum"
attr unit  bytes
statistic Dynamic.node50.queue[1] 	txBytes:histogram
field count 790
field mean 1024
field stddev 0
field sum 808960
field sqrsum 828375040
field min 1024
field max 1024
attr interpolationmode  none
attr title  "transmitting packet byte length, histogram"
attr unit  bytes
bin	-INF	0
bin	1023	0
bin	1024	790
bin	1025	0
scalar Dynamic.node50.queue[1] 	busy:timeavg 	0.0067957570242335
attr interpolationmode  sample-hold
attr title  "server busy state, timeavg"
scalar Dynamic.node50.queue[1] 	qlen:timeavg 	1.8421410211291e-06
attr interpolationmode  sample-hold
attr title  "queue length, timeavg"
scalar Dynamic.node50.queue[1] 	qlen:max 	1
attr interpolationmode  sample-hold
attr title  "queue length, max"
scalar Dynamic.node50.queue[1] 	drop:count 	0
attr interpolationmode  none
attr title  "dropped packet byte length, count"
attr unit  bytes
scalar Dynamic.node50.queue[1] 	drop:sum 	0
attr interpolationmode  none
attr title  "dropped packet byte length, sum"
attr unit  bytes
scalar Dynamic.node50.queue[2] 	rxBytes:count 	4011
attr interpolationmode  none
attr title  "received packet byte length, count"
attr unit  bytes
scalar Dynamic.node50.queue[2] 	rxBytes:sum 	4107264
attr interpolationmode  none
attr title  "received packet byte length, sum"
attr unit  bytes
statistic Dynamic.node50.queue[2] 	rxBytes:histogram
field count 4011
field mean 1024
field stddev 0
field sum 4107264
field sqrsum 4205838336
field min 1024
field max 1024
attr interpolationmode  none
attr title  "received packet byte length, histogram"
attr unit  bytes
bin	-INF	0
bin	1023	0
bin	1024	4011
bin	1025	0
scalar Dynamic.node50.queue[2] 	txBytes:count 	4072
attr interpolationmode  none
attr title  "transmitting packet byte length, count"
attr unit  bytes
scalar Dynamic.node50.queue[2] 	txBytes:sum 	4169728
attr interpolationmode  none
attr title  "transmitting packet byte length, sum"
attr unit  bytes
statistic Dynamic.node50.queue[2] 	txBytes:histogram
field count 4072
field mean 1024
field stddev 0
field sum 4169728
field sqrsum 4269801472
field min 1024
field max 1024
attr interpolationmode  none
attr title  "transmitting packet byte length, histogram"
attr unit  bytes
bin	-INF	0
bin	1023	0
bin	1024	4072
bin	1025	0
scalar Dynamic.node50.queue[2] 	busy:timeavg 	0.035028256459089
attr interpolationmode  sample-hold
attr title  "server busy state, timeavg"
scalar Dynamic.node50.queue[2] 	qlen:timeavg 	0.00028481524871893
attr interpolationmode  sample-hold
attr title  "queue length, timeavg"
scalar Dynamic.node50.queue[2] 	qlen:max 	2
attr interpolationmode  sample-hold
attr title  "queue length, max"
scalar Dynamic.node50.queue[2] 	drop:count 	0
attr interpolationmode  none
attr title  "dropped packet byte length, count"
attr unit  bytes
scalar Dynamic.node50.queue[2] 	drop:sum 	0
attr interpolationmode  none
attr title  "dropped packet byte length, sum"
attr unit  bytes
scalar Dynamic.node60.app 	hopCount:mean 	5.7565308254963
attr interpolationmode  none
attr title  "hop count of arrived packets, mean"
scalar Dynamic.node60.app 	hopCount:max 	11
attr interpolationmode  none
attr title  "hop count of arrived packets, max"
scalar Dynamic.node60.app 	endToEndDelay:mean 	0.10517760281478
attr interpolationmode  none
attr title  "end-to-end delay of arrived packets, mean"
attr unit  s
scalar Dynamic.node60.app 	endToEndDelay:max 	0.214568012001
attr interpolationmode  none
attr title  "end-to-end delay of arrived packets, max"
attr unit  s
statistic Dynamic.node60.routing 	outputIf:histogram
field count 2210
field mean -0.12941176470588
field stddev 0.96638575078865
field sum -286
field sqrsum 2100
field min -1
field max 2
attr interpolationmode  none
attr title  "output interface for each routed packet, histogram"
bin	-INF	0
bin	-3	0
bin	-2	0
bin	-1	957
bin	0	818
bin	1	199
bin	2	236
bin	3	0
bin	4	0
scalar Dynamic.node60.routing 	drop:count 	0
attr interpolationmode  none
attr title  "dropped packet byte length, count"
attr unit  bytes
scalar Dynamic.node60.routing 	drop:sum 	0
attr interpolationmode  none
attr title  "dropped packet byte length, sum"
attr unit  bytes
scalar Dynamic.node60.queue[0] 	rxBytes:count 	790
attr interpolationmode  none
attr title  "received packet byte length, count"
attr unit  bytes
scalar Dynamic.node60.queue[0] 	rxBytes:sum 	808960
attr interpolationmode  none
attr title  "received packet byte length, sum"
attr unit  bytes
statistic Dynamic.node60.queue[0] 	rxBytes:histogram
field count 790
field mean 1024
field stddev 0
field sum 808960
field sqrsum 828375040
field min 1024
field max 1024
attr interpolationmode  none
attr title  "received packet byte length, histogram"
attr unit  bytes
bin	-INF	0
bin	1023	0
bin	1024	790
bin	1025	0
scalar Dynamic.node60.queue[0] 	txBytes:count 	818
attr interpolationmode  none
attr title  "transmitting packet byte length, count"
attr unit  bytes
scalar Dynamic.node60.queue[0] 	txBytes:sum 	837632
attr interpolationmode  none
attr title  "transmitting packet byte length, sum"
attr unit  bytes
statistic Dynamic.node60.queue[0] 	txBytes:histogram
field count 818
field mean 1024
field stddev 0
field sum 837632
field sqrsum 857735168
field min 1024
field max 1024
attr interpolationmode  none
attr title  "transmitting packet byte length, histogram"
attr unit  bytes
bin	-INF	0
bin	1023	0
bin	1024	818
bin	1025	0
scalar Dynamic.node60.queue[0] 	busy:timeavg 	0.0070366192985102
attr interpolationmode  sample-hold
attr title  "server busy state, timeavg"
scalar Dynamic.node60.queue[0] 	qlen:timeavg 	3.0706664098009e-05
attr interpolationmode  sample-hold
attr title  "queue length, timeavg"
scalar Dynamic.node60.queue[0] 	qlen:max 	1
attr interpolationmode  sample-hold
attr title  "queue length, max"
scalar Dynamic.node60.queue[0] 	drop:count 	0
attr interpolationmode  none
attr title  "dropped packet byte length, count"
attr unit  bytes
scalar Dynamic.node60.queue[0] 	drop:sum 	0
attr interpolationmode  none
attr title  "dropped packet byte length, sum"
attr unit  bytes
scalar Dynamic.node60.queue[1] 	rxBytes:count 	218
attr interpolationmode  none
attr title  "received packet byte length, count"
attr unit  bytes
scalar Dynamic.node60.queue[1] 	rxBytes:sum 	223232
attr interpolationmode  none
attr title  "received packet byte length, sum"
attr unit  bytes
statistic Dynamic.node60.queue[1] 	rxBytes:histogram
field count 218
field mean 1024
field stddev 0
field sum 223232
field sqrsum 228589568
field min 1024
field max 1024
attr interpolationmode  none
attr title  "received packet byte length, histogram"
attr unit  bytes
bin	-INF	0
bin	1023	0
bin	1024	218
bin	1025	0
scalar Dynamic.node60.queue[1] 	txBytes:count 	199
attr interpolationmode  none
attr title  "transmitting packet byte length, count"
attr unit  bytes
scalar Dynamic.node60.queue[1] 	txBytes:sum 	203776
attr interpolationmode  none
attr title  "transmitting packet byte length, sum"
attr unit  bytes
statistic Dynamic.node60.queue[1] 	txBytes:histogram
field count 199
field mean 1024
field stddev 0
field sum 203776
field sqrsum 208666624
field min 1024
field max 1024
attr interpolationmode  none
attr title  "transmitting packet byte length, histogram"
attr unit  bytes
bin	-INF	0
bin	1023	0
bin	1024	199
bin	1025	0
scalar Dynamic.node60.queue[1] 	busy:timeavg 	0.0017118425921803
attr interpolationmode  sample-hold
attr title  "server busy state, timeavg"
scalar Dynamic.node60.queue[1] 	qlen:timeavg 	0
attr interpolationmode  sample-hold
attr title  "queue length, timeavg"
scalar Dynamic.node60.queue[1] 	qlen:max 	0
attr interpolationmode  sample-hold
attr title  "queue length, max"
scalar Dynamic.node60.queue[1] 	drop:count 	0
attr interpolationmode  none
attr title  "dropped packet byte length, count"
attr unit  bytes
scalar Dynamic.node60.queue[1] 	drop:sum 	0
attr interpolationmode  none
attr title  "dropped packet byte length, sum"
attr unit  bytes
scalar Dynamic.node60.queue[2] 	rxBytes:count 	254
attr interpolationmode  none
attr title  "received packet byte length, count"
attr unit  bytes
scalar Dynamic.node60.queue[2] 	rxBytes:sum 	260096
attr interpolationmode  none
attr title  "received packet byte length, sum"
attr unit  bytes
statistic Dynamic.node60.queue[2] 	rxBytes:histogram
field count 254
field mean 1024
field stddev 0
field sum 260096
field sqrsum 266338304
field min 1024
field max 1024
attr interpolationmode  none
attr title  "received packet byte length, histogram"
attr unit  bytes
bin	-INF	0
bin	1023	0
bin	1024	254
bin	1025	0
scalar Dynamic.node60.queue[2] 	txBytes:count 	236
attr interpolationmode  none
attr title  "transmitting packet byte length, count"
attr unit  bytes
scalar Dynamic.node60.queue[2] 	txBytes:sum 	241664
attr interpolationmode  none
attr title  "transmitting packet byte length, sum"
attr unit  bytes
statistic Dynamic.node60.queue[2] 	txBytes:histogram
field count 236
field mean 1024
field stddev 0
field sum 241664
field sqrsum 247463936
field min 1024
field max 1024
attr interpolationmode  none
attr title  "transmitting packet byte length, histogram"
attr unit  bytes
bin	-INF	0
bin	1023	0
bin	1024	236
bin	1025	0
scalar Dynamic.node60.queue[2] 	busy:timeavg 	0.0020301248831887
attr interpolationmode  sample-hold
attr title  "server busy state, timeavg"
scalar Dynamic.node60.queue[2] 	qlen:timeavg 	0
attr interpolationmode  sample-hold
attr title  "queue length, timeavg"
scalar Dynamic.node60.queue[2] 	qlen:max 	0
attr interpolationmode  sample-hold
attr title  "queue length, max"
scalar Dynamic.node60.queue[2] 	drop:count 	0
attr interpolationmode  none
attr title  "dropped packet byte length, count"
attr unit  bytes
scalar Dynamic.node60.queue[2] 	drop:sum 	0
attr interpolationmode  none
attr title  "dropped packet byte length, sum"
attr unit  bytes
scalar Dynamic.node70.app 	hopCount:mean 	5.9400206825233
attr interpolationmode  none
attr title  "hop count of arrived packets, mean"
scalar Dynamic.node70.app 	hopCount:max 	11
attr interpolationmode  none
attr title  "hop count of arrived packets, max"
scalar Dynamic.node70.app 	endToEndDelay:mean 	0.10851654849268
attr interpolationmode  none
attr title  "end-to-end delay of arrived packets, mean"
attr unit  s
scalar Dynamic.node70.app 	endToEndDelay:max 	0.214179029027
attr interpolationmode  none
attr title  "end-to-end delay of arrived packets, max"
attr unit  s
statistic Dynamic.node70.routing 	outputIf:histogram
field count 5097
field mean 1.3382381793212
field stddev 1.5967538068076
field sum 6821
field sqrsum 22121
field min -1
field max 3
attr interpolationmode  none
attr title  "output interface for each routed packet, histogram"
bin	-INF	0
bin	-3	0
bin	-2	0
bin	-1	967
bin	0	1093
bin	1	218
bin	2	887
bin	3	1932
bin	4	0
bin	5	0
scalar Dynamic.node70.routing 	drop:count 	0
attr interpolationmode  none
attr title  "dropped packet byte length, count"
attr unit  bytes
scalar Dynamic.node70.routing 	drop:sum 	0
attr interpolationmode  none
attr title  "dropped packet byte length, sum"
attr unit  bytes
scalar Dynamic.node70.queue[0] 	rxBytes:count 	1082
attr interpolationmode  none
attr title  "received packet byte length, count"
attr unit  bytes
scalar Dynamic.node70.queue[0] 	rxBytes:sum 	1107968
attr interpolationmode  none
attr title  "received packet byte length, sum"
attr unit  bytes
statistic Dynamic.node70.queue[0] 	rxBytes:histogram
field count 1082
field mean 1024
field stddev 0
field sum 1107968
field sqrsum 1134559232
field min 1024
field max 1024
attr interpolationmode  none
attr title  "received packet byte length, histogram"
attr unit  bytes
bin	-INF	0
bin	1023	0
bin	1024	1082
bin	1025	0
scalar Dynamic.node70.queue[0] 	txBytes:count 	1093
attr interpolationmode  none
attr title  "transmitting packet byte length, count"
attr unit  bytes
scalar Dynamic.node70.queue[0] 	txBytes:sum 	1119232
attr interpolationmode  none
attr title  "transmitting packet byte length, sum"
attr unit  bytes
statistic Dynamic.node70.queue[0] 	txBytes:histogram
field count 1093
field mean 1024
field stddev 0
field sum 1119232
field sqrsum 1146093568
field min 1024
field max 1024
attr interpolationmode  none
attr title  "transmitting packet byte length, histogram"
attr unit  bytes
bin	-INF	0
bin	1023	0
bin	1024	1093
bin	1025	0
scalar Dynamic.node70.queue[0] 	busy:timeavg 	0.0094022309208699
attr interpolationmode  sample-hold
attr title  "server busy state, timeavg"
scalar Dynamic.node70.queue[0] 	qlen:timeavg 	3.1837898710559e-05
attr interpolationmode  sample-hold
attr title  "queue length, timeavg"
scalar Dynamic.node70.queue[0] 	qlen:max 	1
attr interpolationmode  sample-hold
attr title  "queue length, max"
scalar Dynamic.node70.queue[0] 	drop:count 	0
attr interpolationmode  none
attr title  "dropped packet byte length, count"
attr unit  bytes
scalar Dynamic.node70.queue[0] 	drop:sum 	0
attr interpolationmode  none
attr title  "dropped packet byte length, sum"
attr unit  bytes
scalar Dynamic.node70.queue[1] 	rxBytes:count 	199
attr interpolationmode  none
attr title  "received packet byte length, count"
attr unit  bytes
scalar Dynamic.node70.queue[1] 	rxBytes:sum 	203776
attr interpolationmode  none
attr title  "received packet byte length, sum"
attr unit  bytes
statistic Dynamic.node70.queue[1] 	rxBytes:histogram
field count 199
field mean 1024
field stddev 0
field sum 203776
field sqrsum 208666624
field min 1024
field max 1024
attr interpolationmode  none
attr title  "received packet byte length, histogram"
attr unit  bytes
bin	-INF	0
bin	1023	0
bin	1024	199
bin	1025	0
scalar Dynamic.node70.queue[1] 	txBytes:count 	218
attr interpolationmode  none
attr title  "transmitting packet byte length, count"
attr unit  bytes
scalar Dynamic.node70.queue[1] 	txBytes:sum 	223232
attr interpolationmode  none
attr title  "transmitting packet byte length, sum"
attr unit  bytes
statistic Dynamic.node70.queue[1] 	txBytes:histogram
field count 218
field mean 1024
field stddev 0
field sum 223232
field sqrsum 228589568
field min 1024
field max 1024
attr interpolationmode  none
attr title  "transmitting packet byte length, histogram"
attr unit  bytes
bin	-INF	0
bin	1023	0
bin	1024	218
bin	1025	0
scalar Dynamic.node70.queue[1] 	busy:timeavg 	0.0018752848497252
attr interpolationmode  sample-hold
attr title  "server busy state, timeavg"
scalar Dynamic.node70.queue[1] 	qlen:timeavg 	0
attr interpolationmode  sample-hold
attr title  "queue length, timeavg"
scalar Dynamic.node70.queue[1] 	qlen:max 	0
attr interpolationmode  sample-hold
attr title  "queue length, max"
scalar Dynamic.node70.queue[1] 	drop:count 	0
attr interpolationmode  none
attr title  "dropped packet byte length, count"
attr unit  bytes
scalar Dynamic.node70.queue[1] 	drop:sum 	0
attr interpolationmode  none
attr title  "dropped packet byte length, sum"
attr unit  bytes
scalar Dynamic.node70.queue[2] 	rxBytes:count 	964
attr interpolationmode  none
attr title  "received packet byte length, count"
attr unit  bytes
scalar Dynamic.node70.queue[2] 	rxBytes:sum 	987136
attr interpolationmode  none
attr title  "received packet byte length, sum"
attr unit  bytes
statistic Dynamic.node70.queue[2] 	rxBytes:histogram
field count 964
field mean 1024
field stddev 0
field sum 987136
field sqrsum 1010827264
field min 1024
field max 1024
attr interpolationmode  none
attr title  "received packet byte length, histogram"
attr unit  bytes
bin	-INF	0
bin	1023	0
bin	1024	964
bin	1025	0
scalar Dynamic.node70.queue[2] 	txBytes:count 	887
attr interpolationmode  none
attr title  "transmitting packet byte length, count"
attr unit  bytes
scalar Dynamic.node70.queue[2] 	txBytes:sum 	908288
attr interpolationmode  none
attr title  "transmitting packet byte length, sum"
attr unit  bytes
statistic Dynamic.node70.queue[2] 	txBytes:histogram
field count 887
field mean 1024
field stddev 0
field sum 908288
field sqrsum 930086912
field min 1024
field max 1024
attr interpolationmode  none
attr title  "transmitting packet byte length, histogram"
attr unit  bytes
bin	-INF	0
bin	1023	0
bin	1024	887
bin	1025	0
scalar Dynamic.node70.queue[2] 	busy:timeavg 	0.0076301727601204
attr interpolationmode  sample-hold
attr title  "server busy state, timeavg"
scalar Dynamic.node70.queue[2] 	qlen:timeavg 	2.9515353145441e-05
attr interpolationmode  sample-hold
attr title  "queue length, timeavg"
scalar Dynamic.node70.queue[2] 	qlen:max 	1
attr interpolationmode  sample-hold
attr title  "queue length, max"
scalar Dynamic.node70.queue[2] 	drop:count 	0
attr interpolationmode  none
attr title  "dropped packet byte length, count"
attr unit  bytes
scalar Dynamic.node70.queue[2] 	drop:sum 	0
attr interpolationmode  none
attr title  "dropped packet byte length, sum"
attr unit  bytes
scalar Dynamic.node70.queue[3] 	rxBytes:count 	1889
attr interpolationmode  none
attr title  "received packet byte length, count"
attr unit  bytes
scalar Dynamic.node70.queue[3] 	rxBytes:sum 	1934336
attr interpolationmode  none
attr title  "received packet byte length, sum"
attr unit  bytes
statistic Dynamic.node70.queue[3] 	rxBytes:histogram
field count 1889
field mean 1024
field stddev 0
field sum 1934336
field sqrsum 1980760064
field min 1024
field max 1024
attr interpolationmode  none
attr title  "received packet byte length, histogram"
attr unit  bytes
bin	-INF	0
bin	1023	0
bin	1024	1889
bin	1025	0
scalar Dynamic.node70.queue[3] 	txBytes:count 	1932
attr interpolationmode  none
attr title  "transmitting packet byte length, count"
attr unit  bytes
scalar Dynamic.node70.queue[3] 	txBytes:sum 	1978368
attr interpolationmode  none
attr title  "transmitting packet byte length, sum"
attr unit  bytes
statistic Dynamic.node70.queue[3] 	txBytes:histogram
field count 1932
field mean 1024
field stddev 0
field sum 1978368
field sqrsum 2025848832
field min 1024
field max 1024
attr interpolationmode  none
attr title  "transmitting packet byte length, histogram"
attr unit  bytes
bin	-INF	0
bin	1023	0
bin	1024	1932
bin	1025	0
scalar Dynamic.node70.queue[3] 	busy:timeavg 	0.016619496925087
attr interpolationmode  sample-hold
attr title  "server busy state, timeavg"
scalar Dynamic.node70.queue[3] 	qlen:timeavg 	0.00018701534061149
attr interpolationmode  sample-hold
attr title  "queue length, timeavg"
scalar Dynamic.node70.queue[3] 	qlen:max 	1
attr interpolationmode  sample-hold
attr title  "queue length, max"
scalar Dynamic.node70.queue[3] 	drop:count 	0
attr interpolationmode  none
attr title  "dropped packet byte length, count"
attr unit  bytes
scalar Dynamic.node70.queue[3] 	drop:sum 	0
attr interpolationmode  none
attr title  "dropped packet byte length, sum"
attr unit  bytes
scalar Dynamic.node80.app 	hopCount:mean 	6.5054945054945
attr interpolationmode  none
attr title  "hop count of arrived packets, mean"
scalar Dynamic.node80.app 	hopCount:max 	12
attr interpolationmode  none
attr title  "hop count of arrived packets, max"
scalar Dynamic.node80.app 	endToEndDelay:mean 	0.11878373975765
attr interpolationmode  none
attr title  "end-to-end delay of arrived packets, mean"
attr unit  s
scalar Dynamic.node80.app 	endToEndDelay:max 	0.229986373324
attr interpolationmode  none
attr title  "end-to-end delay of arrived packets, max"
attr unit  s
statistic Dynamic.node80.routing 	outputIf:histogram
field count 1874
field mean -0.48559231590181
field stddev 0.49992577800917
field sum -910
field sqrsum 910
field min -1
field max 0
attr interpolationmode  none
attr title  "output interface for each routed packet, histogram"
bin	-INF	0
bin	-2	0
bin	-1	910
bin	0	964
bin	1	0
scalar Dynamic.node80.routing 	drop:count 	0
attr interpolationmode  none
attr title  "dropped packet byte length, count"
attr unit  bytes
scalar Dynamic.node80.routing 	drop:sum 	0
attr interpolationmode  none
attr title  "dropped packet byte length, sum"
attr unit  bytes
scalar Dynamic.node80.queue[0] 	rxBytes:count 	887
attr interpolationmode  none
attr title  "received packet byte length, count"
attr unit  bytes
scalar Dynamic.node80.queue[0] 	rxBytes:sum 	908288
attr interpolationmode  none
attr title  "received packet byte length, sum"
attr unit  bytes
statistic Dynamic.node80.queue[0] 	rxBytes:histogram
field count 887
field mean 1024
field stddev 0
field sum 908288
field sqrsum 930086912
field min 1024
field max 1024
attr interpolationmode  none
attr title  "received packet byte length, histogram"
attr unit  bytes
bin	-INF	0
bin	1023	0
bin	1024	887
bin	1025	0
scalar Dynamic.node80.queue[0] 	txBytes:count 	964
attr interpolationmode  none
attr title  "transmitting packet byte length, count"
attr unit  bytes
scalar Dynamic.node80.queue[0] 	txBytes:sum 	987136
attr interpolationmode  none
attr title  "transmitting packet byte length, sum"
attr unit  bytes
statistic Dynamic.node80.queue[0] 	txBytes:histogram
field count 964
field mean 1024
field stddev 0
field sum 987136
field sqrsum 1010827264
field min 1024
field max 1024
attr interpolationmode  none
attr title  "transmitting packet byte length, histogram"
attr unit  bytes
bin	-INF	0
bin	1023	0
bin	1024	964
bin	1025	0
scalar Dynamic.node80.queue[0] 	busy:timeavg 	0.0082925440143812
attr interpolationmode  sample-hold
attr title  "server busy state, timeavg"
scalar Dynamic.node80.queue[0] 	qlen:timeavg 	2.5215550619091e-05
attr interpolationmode  sample-hold
attr title  "queue length, timeavg"
scalar Dynamic.node80.queue[0] 	qlen:max 	1
attr interpolationmode  sample-hold
attr title  "queue length, max"
scalar Dynamic.node80.queue[0] 	drop:count 	0
attr interpolationmode  none
attr title  "dropped packet byte length, count"
attr unit  bytes
scalar Dynamic.node80.queue[0] 	drop:sum 	0
attr interpolationmode  none
attr title  "dropped packet byte length, sum"
attr unit  bytes
scalar Dynamic.node90.app 	hopCount:mean 	5.4744525547445
attr interpolationmode  none
attr title  "hop count of arrived packets, mean"
scalar Dynamic.node90.app 	hopCount:max 	10
attr interpolationmode  none
attr title  "hop count of arrived packets, max"
scalar Dynamic.node90.app 	endToEndDelay:mean 	0.099977658511845
attr interpolationmode  none
attr title  "end-to-end delay of arrived packets, mean"
attr unit  s
scalar Dynamic.node90.app 	endToEndDelay:max 	0.198677762929
attr interpolationmode  none
attr title  "end-to-end delay of arrived packets, max"
attr unit  s
statistic Dynamic.node90.routing 	outputIf:histogram
field count 2081
field mean -0.043728976453628
field stddev 0.93619028081664
field sum -91
field sqrsum 1827
field min -1
field max 1
attr interpolationmode  none
attr title  "output interface for each routed packet, histogram"
bin	-INF	0
bin	-2	0
bin	-1	959
bin	0	254
bin	1	868
bin	2	0
scalar Dynamic.node90.routing 	drop:count 	0
attr interpolationmode  none
attr title  "dropped packet byte length, count"
attr unit  bytes
scalar Dynamic.node90.routing 	drop:sum 	0
attr interpolationmode  none
attr title  "dropped packet byte length, sum"
attr unit  bytes
scalar Dynamic.node90.queue[0] 	rxBytes:count 	236
attr interpolationmode  none
attr title  "received packet byte length, count"
attr unit  bytes
scalar Dynamic.node90.queue[0] 	rxBytes:sum 	241664
attr interpolationmode  none
attr title  "received packet byte length, sum"
attr unit  bytes
statistic Dynamic.node90.queue[0] 	rxBytes:histogram
field count 236
field mean 1024
field stddev 0
field sum 241664
field sqrsum 247463936
field min 1024
field max 1024
attr interpolationmode  none
attr title  "received packet byte length, histogram"
attr unit  bytes
bin	-INF	0
bin	1023	0
bin	1024	236
bin	1025	0
scalar Dynamic.node90.queue[0] 	txBytes:count 	254
attr interpolationmode  none
attr title  "transmitting packet byte length, count"
attr unit  bytes
scalar Dynamic.node90.queue[0] 	txBytes:sum 	260096
attr interpolationmode  none
attr title  "transmitting packet byte length, sum"
attr unit  bytes
statistic Dynamic.node90.queue[0] 	txBytes:histogram
field count 254
field mean 1024
field stddev 0
field sum 260096
field sqrsum 266338304
field min 1024
field max 1024
attr interpolationmode  none
attr title  "transmitting packet byte length, histogram"
attr unit  bytes
bin	-INF	0
bin	1023	0
bin	1024	254
bin	1025	0
scalar Dynamic.node90.queue[0] 	busy:timeavg 	0.0021849649166523
attr interpolationmode  sample-hold
attr title  "server busy state, timeavg"
scalar Dynamic.node90.queue[0] 	qlen:timeavg 	1.589646491511e-05
attr interpolationmode  sample-hold
attr title  "queue length, timeavg"
scalar Dynamic.node90.queue[0] 	qlen:max 	1
attr interpolationmode  sample-hold
attr title  "queue length, max"
scalar Dynamic.node90.queue[0] 	drop:count 	0
attr interpolationmode  none
attr title  "dropped packet byte length, count"
attr unit  bytes
scalar Dynamic.node90.queue[0] 	drop:sum 	0
attr interpolationmode  none
attr title  "dropped packet byte length, sum"
attr unit  bytes
scalar Dynamic.node90.queue[1] 	rxBytes:count 	819
attr interpolationmode  none
attr title  "received packet byte length, count"
attr unit  bytes
scalar Dynamic.node90.queue[1] 	rxBytes:sum 	838656
attr interpolationmode  none
attr title  "received packet byte length, sum"
attr unit  bytes
statistic Dynamic.node90.queue[1] 	rxBytes:histogram
field count 819
field mean 1024
field stddev 0
field sum 838656
field sqrsum 858783744
field min 1024
field max 1024
attr interpolationmode  none
attr title  "received packet byte length, histogram"
attr unit  bytes
bin	-INF	0
bin	1023	0
bin	1024	819
bin	1025	0
scalar Dynamic.node90.queue[1] 	txBytes:count 	868
attr interpolationmode  none
attr title  "transmitting packet byte length, count"
attr unit  bytes
scalar Dynamic.node90.queue[1] 	txBytes:sum 	888832
attr interpolationmode  none
attr title  "transmitting packet byte length, sum"
attr unit  bytes
statistic Dynamic.node90.queue[1] 	txBytes:histogram
field count 868
field mean 1024
field stddev 0
field sum 888832
field sqrsum 910163968
field min 1024
field max 1024
attr interpolationmode  none
attr title  "transmitting packet byte length, histogram"
attr unit  bytes
bin	-INF	0
bin	1023	0
bin	1024	868
bin	1025	0
scalar Dynamic.node90.queue[1] 	busy:timeavg 	0.0074667305025756
attr interpolationmode  sample-hold
attr title  "server busy state, timeavg"
scalar Dynamic.node90.queue[1] 	qlen:timeavg 	4.5359673703039e-05
attr interpolationmode  sample-hold
attr title  "queue length, timeavg"
scalar Dynamic.node90.queue[1] 	qlen:max 	1
attr interpolationmode  sample-hold
attr title  "queue length, max"
scalar Dynamic.node90.queue[1] 	drop:count 	0
attr interpolationmode  none
attr title  "dropped packet byte length, count"
attr unit  bytes
scalar Dynamic.node90.queue[1] 	drop:sum 	0
attr interpolationmode  none
attr title  "dropped packet byte length, sum"
attr unit  bytes
scalar Dynamic.node100.app 	hopCount:mean 	4.7221052631579
attr interpolationmode  none
attr title  "hop count of arrived packets, mean"
scalar Dynamic.node100.app 	hopCount:max 	9
attr interpolationmode  none
attr title  "hop count of arrived packets, max"
scalar Dynamic.node100.app 	endToEndDelay:mean 	0.086386168415124
attr interpolationmode  none
attr title  "end-to-end delay of arrived packets, mean"
attr unit  s
scalar Dynamic.node100.app 	endToEndDelay:max 	0.17346521351
attr interpolationmode  none
attr title  "end-to-end delay of arrived packets, max"
attr unit  s
statistic Dynamic.node100.routing 	outputIf:histogram
field count 10390
field mean 0.86400384985563
field stddev 1.0799602421108
field sum 8977
field sqrsum 19873
field min -1
field max 2
attr interpolationmode  none
attr title  "output interface for each routed packet, histogram"
bin	-INF	0
bin	-3	0
bin	-2	0
bin	-1	950
bin	0	4011
bin	1	931
bin	2	4498
bin	3	0
bin	4	0
scalar Dynamic.node100.routing 	drop:count 	0
attr interpolationmode  none
attr title  "dropped packet byte length, count"
attr unit  bytes
scalar Dynamic.node100.routing 	drop:sum 	0
attr interpolationmode  none
attr title  "dropped packet byte length, sum"
attr unit  bytes
scalar Dynamic.node100.queue[0] 	rxBytes:count 	4072
attr interpolationmode  none
attr title  "received packet byte length, count"
attr unit  bytes
scalar Dynamic.node100.queue[0] 	rxBytes:sum 	4169728
attr interpolationmode  none
attr title  "received packet byte length, sum"
attr unit  bytes
statistic Dynamic.node100.queue[0] 	rxBytes:histogram
field count 4072
field mean 1024
field stddev 0
field sum 4169728
field sqrsum 4269801472
field min 1024
field max 1024
attr interpolationmode  none
attr title  "received packet byte length, histogram"
attr unit  bytes
bin	-INF	0
bin	1023	0
bin	1024	4072
bin	1025	0
scalar Dynamic.node100.queue[0] 	txBytes:count 	4011
attr interpolationmode  none
attr title  "transmitting packet byte length, count"
attr unit  bytes
scalar Dynamic.node100.queue[0] 	txBytes:sum 	4107264
attr interpolationmode  none
attr title  "transmitting packet byte length, sum"
attr unit  bytes
statistic Dynamic.node100.queue[0] 	txBytes:histogram
field count 4011
field mean 1024
field stddev 0
field sum 4107264
field sqrsum 4205838336
field min 1024
field max 1024
attr interpolationmode  none
attr title  "transmitting packet byte length, histogram"
attr unit  bytes
bin	-INF	0
bin	1023	0
bin	1024	4011
bin	1025	0
scalar Dynamic.node100.queue[0] 	busy:timeavg 	0.034503520790129
attr interpolationmode  sample-hold
attr title  "server busy state, timeavg"
scalar Dynamic.node100.queue[0] 	qlen:timeavg 	0.00018413979705372
attr interpolationmode  sample-hold
attr title  "queue length, timeavg"
scalar Dynamic.node100.queue[0] 	qlen:max 	1
attr interpolationmode  sample-hold
attr title  "queue length, max"
scalar Dynamic.node100.queue[0] 	drop:count 	0
attr interpolationmode  none
attr title  "dropped packet byte length, count"
attr unit  bytes
scalar Dynamic.node100.queue[0] 	drop:sum 	0
attr interpolationmode  none
attr title  "dropped packet byte length, sum"
attr unit  bytes
scalar Dynamic.node100.queue[1] 	rxBytes:count 	964
attr interpolationmode  none
attr title  "received packet byte length, count"
attr unit  bytes
scalar Dynamic.node100.queue[1] 	rxBytes:sum 	987136
attr interpolationmode  none
attr title  "received packet byte length, sum"
attr unit  bytes
statistic Dynamic.node100.queue[1] 	rxBytes:histogram
field count 964
field mean 1024
field stddev 0
field sum 987136
field sqrsum 1010827264
field min 1024
field max 1024
attr interpolationmode  none
attr title  "received packet byte length, histogram"
attr unit  bytes
bin	-INF	0
bin	1023	0
bin	1024	964
bin	1025	0
scalar Dynamic.node100.queue[1] 	txBytes:count 	931
attr interpolationmode  none
attr title  "transmitting packet byte length, count"
attr unit  bytes
scalar Dynamic.node100.queue[1] 	txBytes:sum 	953344
attr interpolationmode  none
attr title  "transmitting packet byte length, sum"
attr unit  bytes
statistic Dynamic.node100.queue[1] 	txBytes:histogram
field count 931
field mean 1024
field stddev 0
field sum 953344
field sqrsum 976224256
field min 1024
field max 1024
attr interpolationmode  none
attr title  "transmitting packet byte length, histogram"
attr unit  bytes
bin	-INF	0
bin	1023	0
bin	1024	931
bin	1025	0
scalar Dynamic.node100.queue[1] 	busy:timeavg 	0.008008670619698
attr interpolationmode  sample-hold
attr title  "server busy state, timeavg"
scalar Dynamic.node100.queue[1] 	qlen:timeavg 	2.4658951465773e-05
attr interpolationmode  sample-hold
attr title  "queue length, timeavg"
scalar Dynamic.node100.queue[1] 	qlen:max 	1
attr interpolationmode  sample-hold
attr title  "queue length, max"
scalar Dynamic.node100.queue[1] 	drop:count 	0
attr interpolationmode  none
attr title  "dropped packet byte length, count"
attr unit  bytes
scalar Dynamic.node100.queue[1] 	drop:sum 	0
attr interpolationmode  none
attr title  "dropped packet byte length, sum"
attr unit  bytes
scalar Dynamic.node100.queue[2] 	rxBytes:count 	4438
attr interpolationmode  none
attr title  "received packet byte length, count"
attr unit  bytes
scalar Dynamic.node100.queue[2] 	rxBytes:sum 	4544512
attr interpolationmode  none
attr title  "received packet byte length, sum"
attr unit  bytes
statistic Dynamic.node100.queue[2] 	rxBytes:histogram
field count 4438
field mean 1024
field stddev 0
field sum 4544512
field sqrsum 4653580288
field min 1024
field max 1024
attr interpolationmode  none
attr title  "received packet byte length, histogram"
attr unit  bytes
bin	-INF	0
bin	1023	0
bin	1024	4438
bin	1025	0
scalar Dynamic.node100.queue[2] 	txBytes:count 	4498
attr interpolationmode  none
attr title  "transmitting packet byte length, count"
attr unit  bytes
scalar Dynamic.node100.queue[2] 	txBytes:sum 	4605952
attr interpolationmode  none
attr title  "transmitting packet byte length, sum"
attr unit  bytes
statistic Dynamic.node100.queue[2] 	txBytes:histogram
field count 4498
field mean 1024
field stddev 0
field sum 4605952
field sqrsum 4716494848
field min 1024
field max 1024
attr interpolationmode  none
attr title  "transmitting packet byte length, histogram"
attr unit  bytes
bin	-INF	0
bin	1023	0
bin	1024	4498
bin	1025	0
scalar Dynamic.node100.queue[2] 	busy:timeavg 	0.038692803917726
attr interpolationmode  sample-hold
attr title  "server busy state, timeavg"
scalar Dynamic.node100.queue[2] 	qlen:timeavg 	0.00027207807724212
attr interpolationmode  sample-hold
attr title  "queue length, timeavg"
scalar Dynamic.node100.queue[2] 	qlen:max 	1
attr interpolationmode  sample-hold
attr title  "queue length, max"
scalar Dynamic.node100.queue[2] 	drop:count 	0
attr interpolationmode  none
attr title  "dropped packet byte length, count"
attr unit  bytes
scalar Dynamic.node100.queue[2] 	drop:sum 	0
attr interpolationmode  none
attr title  "dropped packet byte length, sum"
attr unit  bytes
scalar Dynamic.node110.app 	hopCount:mean 	4.6435742971888
attr interpolationmode  none
attr title  "hop count of arrived packets, mean"
scalar Dynamic.node110.app 	hopCount:max 	9
attr interpolationmode  none
attr title  "hop count of arrived packets, max"
scalar Dynamic.node110.app 	endToEndDelay:mean 	0.084895619043007
attr interpolationmode  none
attr title  "end-to-end delay of arrived packets, mean"
attr unit  s
scalar Dynamic.node110.app 	endToEndDelay:max 	0.189611391416
attr interpolationmode  none
attr title  "end-to-end delay of arrived packets, max"
attr unit  s
statistic Dynamic.node110.routing 	outputIf:histogram
field count 7074
field mean 1.5726604467062
field stddev 1.4307697270811
field sum 11125
field sqrsum 31975
field min -1
field max 3
attr interpolationmode  none
attr title  "output interface for each routed packet, histogram"
bin	-INF	0
bin	-3	0
bin	-2	0
bin	-1	996
bin	0	819
bin	1	964
bin	2	1728
bin	3	2567
bin	4	0
bin	5	0
scalar Dynamic.node110.routing 	drop:count 	0
attr interpolationmode  none
attr title  "dropped packet byte length, count"
attr unit  bytes
scalar Dynamic.node110.routing 	drop:sum 	0
attr interpolationmode  none
attr title  "dropped packet byte length, sum"
attr unit  bytes
scalar Dynamic.node110.queue[0] 	rxBytes:count 	868
attr interpolationmode  none
attr title  "received packet byte length, count"
attr unit  bytes
scalar Dynamic.node110.queue[0] 	rxBytes:sum 	888832
attr interpolationmode  none
attr title  "received packet byte length, sum"
attr unit  bytes
statistic Dynamic.node110.queue[0] 	rxBytes:histogram
field count 868
field mean 1024
field stddev 0
field sum 888832
field sqrsum 910163968
field min 1024
field max 1024
attr interpolationmode  none
attr title  "received packet byte length, histogram"
attr unit  bytes
bin	-INF	0
bin	1023	0
bin	1024	868
bin	1025	0
scalar Dynamic.node110.queue[0] 	txBytes:count 	819
attr interpolationmode  none
attr title  "transmitting packet byte length, count"
attr unit  bytes
scalar Dynamic.node110.queue[0] 	txBytes:sum 	838656
attr interpolationmode  none
attr title  "transmitting packet byte length, sum"
attr unit  bytes
statistic Dynamic.node110.queue[0] 	txBytes:histogram
field count 819
field mean 1024
field stddev 0
field sum 838656
field sqrsum 858783744
field min 1024
field max 1024
attr interpolationmode  none
attr title  "transmitting packet byte length, histogram"
attr unit  bytes
bin	-INF	0
bin	1023	0
bin	1024	819
bin	1025	0
scalar Dynamic.node110.queue[0] 	busy:timeavg 	0.0070452215225915
attr interpolationmode  sample-hold
attr title  "server busy state, timeavg"
scalar Dynamic.node110.queue[0] 	qlen:timeavg 	1.4995366306958e-05
attr interpolationmode  sample-hold
attr title  "queue length, timeavg"
scalar Dynamic.node110.queue[0] 	qlen:max 	1
attr interpolationmode  sample-hold
attr title  "queue length, max"
scalar Dynamic.node110.queue[0] 	drop:count 	0
attr interpolationmode  none
attr title  "dropped packet byte length, count"
attr unit  bytes
scalar Dynamic.node110.queue[0] 	drop:sum 	0
attr interpolationmode  none
attr title  "dropped packet byte length, sum"
attr unit  bytes
scalar Dynamic.node110.queue[1] 	rxBytes:count 	931
attr interpolationmode  none
attr title  "received packet byte length, count"
attr unit  bytes
scalar Dynamic.node110.queue[1] 	rxBytes:sum 	953344
attr interpolationmode  none
attr title  "received packet byte length, sum"
attr unit  bytes
statistic Dynamic.node110.queue[1] 	rxBytes:histogram
field count 931
field mean 1024
field stddev 0
field sum 953344
field sqrsum 976224256
field min 1024
field max 1024
attr interpolationmode  none
attr title  "received packet byte length, histogram"
attr unit  bytes
bin	-INF	0
bin	1023	0
bin	1024	931
bin	1025	0
scalar Dynamic.node110.queue[1] 	txBytes:count 	964
attr interpolationmode  none
attr title  "transmitting packet byte length, count"
attr unit  bytes
scalar Dynamic.node110.queue[1] 	txBytes:sum 	987136
attr interpolationmode  none
attr title  "transmitting packet byte length, sum"
attr unit  bytes
statistic Dynamic.node110.queue[1] 	txBytes:histogram
field count 964
field mean 1024
field stddev 0
field sum 987136
field sqrsum 1010827264
field min 1024
field max 1024
attr interpolationmode  none
attr title  "transmitting packet byte length, histogram"
attr unit  bytes
bin	-INF	0
bin	1023	0
bin	1024	964
bin	1025	0
scalar Dynamic.node110.queue[1] 	busy:timeavg 	0.0082925440143812
attr interpolationmode  sample-hold
attr title  "server busy state, timeavg"
scalar Dynamic.node110.queue[1] 	qlen:timeavg 	1.8056507455973e-05
attr interpolationmode  sample-hold
attr title  "queue length, timeavg"
scalar Dynamic.node110.queue[1] 	qlen:max 	1
attr interpolationmode  sample-hold
attr title  "queue length, max"
scalar Dynamic.node110.queue[1] 	drop:count 	0
attr interpolationmode  none
attr title  "dropped packet byte length, count"
attr unit  bytes
scalar Dynamic.node110.queue[1] 	drop:sum 	0
attr interpolationmode  none
attr title  "dropped packet byte length, sum"
attr unit  bytes
scalar Dynamic.node110.queue[2] 	rxBytes:count 	1761
attr interpolationmode  none
attr title  "received packet byte length, count"
attr unit  bytes
scalar Dynamic.node110.queue[2] 	rxBytes:sum 	1803264
attr interpolationmode  none
attr title  "received packet byte length, sum"
attr unit  bytes
statistic Dynamic.node110.queue[2] 	rxBytes:histogram
field count 1761
field mean 1024
field stddev 0
field sum 1803264
field sqrsum 1846542336
field min 1024
field max 1024
attr interpolationmode  none
attr title  "received packet byte length, histogram"
attr unit  bytes
bin	-INF	0
bin	1023	0
bin	1024	1761
bin	1025	0
scalar Dynamic.node110.queue[2] 	txBytes:count 	1728
attr interpolationmode  none
attr title  "transmitting packet byte length, count"
attr unit  bytes
scalar Dynamic.node110.queue[2] 	txBytes:sum 	1769472
attr interpolationmode  none
attr title  "transmitting packet byte length, sum"
attr unit  bytes
statistic Dynamic.node110.queue[2] 	txBytes:histogram
field count 1728
field mean 1024
field stddev 0
field sum 1769472
field sqrsum 1811939328
field min 1024
field max 1024
attr interpolationmode  none
attr title  "transmitting packet byte length, histogram"
attr unit  bytes
bin	-INF	0
bin	1023	0
bin	1024	1728
bin	1025	0
scalar Dynamic.node110.queue[2] 	busy:timeavg 	0.0148646432125
attr interpolationmode  sample-hold
attr title  "server busy state, timeavg"
scalar Dynamic.node110.queue[2] 	qlen:timeavg 	8.1330950976384e-05
attr interpolationmode  sample-hold
attr title  "queue length, timeavg"
scalar Dynamic.node110.queue[2] 	qlen:max 	1
attr interpolationmode  sample-hold
attr title  "queue length, max"
scalar Dynamic.node110.queue[2] 	drop:count 	0
attr interpolationmode  none
attr title  "dropped packet byte length, count"
attr unit  bytes
scalar Dynamic.node110.queue[2] 	drop:sum 	0
attr interpolationmode  none
attr title  "dropped packet byte length, sum"
attr unit  bytes
scalar Dynamic.node110.queue[3] 	rxBytes:count 	2523
attr interpolationmode  none
attr title  "received packet byte length, count"
attr unit  bytes
scalar Dynamic.node110.queue[3] 	rxBytes:sum 	2583552
attr interpolationmode  none
attr title  "received packet byte length, sum"
attr unit  bytes
statistic Dynamic.node110.queue[3] 	rxBytes:histogram
field count 2523
field mean 1024
field stddev 0
field sum 2583552
field sqrsum 2645557248
field min 1024
field max 1024
attr interpolationmode  none
attr title  "received packet byte length, histogram"
attr unit  bytes
bin	-INF	0
bin	1023	0
bin	1024	2523
bin	1025	0
scalar Dynamic.node110.queue[3] 	txBytes:count 	2567
attr interpolationmode  none
attr title  "transmitting packet byte length, count"
attr unit  bytes
scalar Dynamic.node110.queue[3] 	txBytes:sum 	2628608
attr interpolationmode  none
attr title  "transmitting packet byte length, sum"
attr unit  bytes
statistic Dynamic.node110.queue[3] 	txBytes:histogram
field count 2567
field mean 1024
field stddev 0
field sum 2628608
field sqrsum 2691694592
field min 1024
field max 1024
attr interpolationmode  none
attr title  "transmitting packet byte length, histogram"
attr unit  bytes
bin	-INF	0
bin	1023	0
bin	1024	2567
bin	1025	0
scalar Dynamic.node110.queue[3] 	busy:timeavg 	0.022081909216718
attr interpolationmode  sample-hold
attr title  "server busy state, timeavg"
scalar Dynamic.node110.queue[3] 	qlen:timeavg 	0.00022593249385255
attr interpolationmode  sample-hold
attr title  "queue length, timeavg"
scalar Dynamic.node110.queue[3] 	qlen:max 	2
attr interpolationmode  sample-hold
attr title  "queue length, max"
scalar Dynamic.node110.queue[3] 	drop:count 	0
attr interpolationmode  none
attr title  "dropped packet byte length, count"
attr unit  bytes
scalar Dynamic.node110.queue[3] 	drop:sum 	0
attr interpolationmode  none
attr title  "dropped packet byte length, sum"
attr unit  bytes
scalar Dynamic.node120.app 	hopCount:mean 	5.1042701092354
attr interpolationmode  none
attr title  "hop count of arrived packets, mean"
scalar Dynamic.node120.app 	hopCount:max 	10
attr interpolationmode  none
attr title  "hop count of arrived packets, max"
scalar Dynamic.node120.app 	endToEndDelay:mean 	0.093300336751577
attr interpolationmode  none
attr title  "end-to-end delay of arrived packets, mean"
attr unit  s
scalar Dynamic.node120.app 	endToEndDelay:max 	0.198042500075
attr interpolationmode  none
attr title  "end-to-end delay of arrived packets, max"
attr unit  s
statistic Dynamic.node120.routing 	outputIf:histogram
field count 5946
field mean 0.56037672384796
field stddev 1.0093611263005
field sum 3332
field sqrsum 7924
field min -1
field max 2
attr interpolationmode  none
attr title  "output interface for each routed packet, histogram"
bin	-INF	0
bin	-3	0
bin	-2	0
bin	-1	1007
bin	0	1889
bin	1	1761
bin	2	1289
bin	3	0
bin	4	0
scalar Dynamic.node120.routing 	drop:count 	0
attr interpolationmode  none
attr title  "dropped packet byte length, count"
attr unit  bytes
scalar Dynamic.node120.routing 	drop:sum 	0
attr interpolationmode  none
attr title  "dropped packet byte length, sum"
attr unit  bytes
scalar Dynamic.node120.queue[0] 	rxBytes:count 	1932
attr interpolationmode  none
attr title  "received packet byte length, count"
attr unit  bytes
scalar Dynamic.node120.queue[0] 	rxBytes:sum 	1978368
attr interpolationmode  none
attr title  "received packet byte length, sum"
attr unit  bytes
statistic Dynamic.node120.queue[0] 	rxBytes:histogram
field count 1932
field mean 1024
field stddev 0
field sum 1978368
field sqrsum 2025848832
field min 1024
field max 1024
attr interpolationmode  none
attr title  "received packet byte length, histogram"
attr unit  bytes
bin	-INF	0
bin	1023	0
bin	1024	1932
bin	1025	0
scalar Dynamic.node120.queue[0] 	txBytes:count 	1889
attr interpolationmode  none
attr title  "transmitting packet byte length, count"
attr unit  bytes
scalar Dynamic.node120.queue[0] 	txBytes:sum 	1934336
attr interpolationmode  none
attr title  "transmitting packet byte length, sum"
attr unit  bytes
statistic Dynamic.node120.queue[0] 	txBytes:histogram
field count 1889
field mean 1024
field stddev 0
field sum 1934336
field sqrsum 1980760064
field min 1024
field max 1024
attr interpolationmode  none
attr title  "transmitting packet byte length, histogram"
attr unit  bytes
bin	-INF	0
bin	1023	0
bin	1024	1889
bin	1025	0
scalar Dynamic.node120.queue[0] 	busy:timeavg 	0.016249601289591
attr interpolationmode  sample-hold
attr title  "server busy state, timeavg"
scalar Dynamic.node120.queue[0] 	qlen:timeavg 	0.00012018168040317
attr interpolationmode  sample-hold
attr title  "queue length, timeavg"
scalar Dynamic.node120.queue[0] 	qlen:max 	1
attr interpolationmode  sample-hold
attr title  "queue length, max"
scalar Dynamic.node120.queue[0] 	drop:count 	0
attr interpolationmode  none
attr title  "dropped packet byte length, count"
attr unit  bytes
scalar Dynamic.node120.queue[0] 	drop:sum 	0
attr interpolationmode  none
attr title  "dropped packet byte length, sum"
attr unit  bytes
scalar Dynamic.node120.queue[1] 	rxBytes:count 	1728
attr interpolationmode  none
attr title  "received packet byte length, count"
attr unit  bytes
scalar Dynamic.node120.queue[1] 	rxBytes:sum 	1769472
attr interpolationmode  none
attr title  "received packet byte length, sum"
attr unit  bytes
statistic Dynamic.node120.queue[1] 	rxBytes:histogram
field count 1728
field mean 1024
field stddev 0
field sum 1769472
field sqrsum 1811939328
field min 1024
field max 1024
attr interpolationmode  none
attr title  "received packet byte length, histogram"
attr unit  bytes
bin	-INF	0
bin	1023	0
bin	1024	1728
bin	1025	0
scalar Dynamic.node120.queue[1] 	txBytes:count 	1761
attr interpolationmode  none
attr title  "transmitting packet byte length, count"
attr unit  bytes
scalar Dynamic.node120.queue[1] 	txBytes:sum 	1803264
attr interpolationmode  none
attr title  "transmitting packet byte length, sum"
attr unit  bytes
statistic Dynamic.node120.queue[1] 	txBytes:histogram
field count 1761
field mean 1024
field stddev 0
field sum 1803264
field sqrsum 1846542336
field min 1024
field max 1024
attr interpolationmode  none
attr title  "transmitting packet byte length, histogram"
attr unit  bytes
bin	-INF	0
bin	1023	0
bin	1024	1761
bin	1025	0
scalar Dynamic.node120.queue[1] 	busy:timeavg 	0.015148516607183
attr interpolationmode  sample-hold
attr title  "server busy state, timeavg"
scalar Dynamic.node120.queue[1] 	qlen:timeavg 	6.6079595039677e-05
attr interpolationmode  sample-hold
attr title  "queue length, timeavg"
scalar Dynamic.node120.queue[1] 	qlen:max 	1
attr interpolationmode  sample-hold
attr title  "queue length, max"
scalar Dynamic.node120.queue[1] 	drop:count 	0
attr interpolationmode  none
attr title  "dropped packet byte length, count"
attr unit  bytes
scalar Dynamic.node120.queue[1] 	drop:sum 	0
attr interpolationmode  none
attr title  "dropped packet byte length, sum"
attr unit  bytes
scalar Dynamic.node120.queue[2] 	rxBytes:count 	1332
attr interpolationmode  none
attr title  "received packet byte length, count"
attr unit  bytes
scalar Dynamic.node120.queue[2] 	rxBytes:sum 	1363968
attr interpolationmode  none
attr title  "received packet byte length, sum"
attr unit  bytes
statistic Dynamic.node120.queue[2] 	rxBytes:histogram
field count 1332
field mean 1024
field stddev 0
field sum 1363968
field sqrsum 1396703232
field min 1024
field max 1024
attr interpolationmode  none
attr title  "received packet byte length, histogram"
attr unit  bytes
bin	-INF	0
bin	1023	0
bin	1024	1332
bin	1025	0
scalar Dynamic.node120.queue[2] 	txBytes:count 	1289
attr interpolationmode  none
attr title  "transmitting packet byte length, count"
attr unit  bytes
scalar Dynamic.node120.queue[2] 	txBytes:sum 	1319936
attr interpolationmode  none
attr title  "transmitting packet byte length, sum"
attr unit  bytes
statistic Dynamic.node120.queue[2] 	txBytes:histogram
field count 1289
field mean 1024
field stddev 0
field sum 1319936
field sqrsum 1351614464
field min 1024
field max 1024
attr interpolationmode  none
attr title  "transmitting packet byte length, histogram"
attr unit  bytes
bin	-INF	0
bin	1023	0
bin	1024	1289
bin	1025	0
scalar Dynamic.node120.queue[2] 	busy:timeavg 	0.011088266840806
attr interpolationmode  sample-hold
attr title  "server busy state, timeavg"
scalar Dynamic.node120.queue[2] 	qlen:timeavg 	6.3511074652374e-05
attr interpolationmode  sample-hold
attr title  "queue length, timeavg"
scalar Dynamic.node120.queue[2] 	qlen:max 	1
attr interpolationmode  sample-hold
attr title  "queue length, max"
scalar Dynamic.node120.queue[2] 	drop:count 	0
attr interpolationmode  none
attr title  "dropped packet byte length, count"
attr unit  bytes
scalar Dynamic.node120.queue[2] 	drop:sum 	0
attr interpolationmode  none
attr title  "dropped packet byte length, sum"
attr unit  bytes
scalar Dynamic.node130.app 	hopCount:mean 	4.4449197860963
attr interpolationmode  none
attr title  "hop count of arrived packets, mean"
scalar Dynamic.node130.app 	hopCount:max 	8
attr interpolationmode  none
attr title  "hop count of arrived packets, max"
scalar Dynamic.node130.app 	endToEndDelay:mean 	0.08125392307329
attr interpolationmode  none
attr title  "end-to-end delay of arrived packets, mean"
attr unit  s
scalar Dynamic.node130.app 	endToEndDelay:max 	0.157002809789
attr interpolationmode  none
attr title  "end-to-end delay of arrived packets, max"
attr unit  s
statistic Dynamic.node130.routing 	outputIf:histogram
field count 10136
field mean 0.3776637726914
field stddev 0.6477392720777
field sum 3828
field sqrsum 5698
field min -1
field max 1
attr interpolationmode  none
attr title  "output interface for each routed packet, histogram"
bin	-INF	0
bin	-2	0
bin	-1	935
bin	0	4438
bin	1	4763
bin	2	0
scalar Dynamic.node130.routing 	drop:count 	0
attr interpolationmode  none
attr title  "dropped packet byte length, count"
attr unit  bytes
scalar Dynamic.node130.routing 	drop:sum 	0
attr interpolationmode  none
attr title  "dropped packet byte length, sum"
attr unit  bytes
scalar Dynamic.node130.queue[0] 	rxBytes:count 	4498
attr interpolationmode  none
attr title  "received packet byte length, count"
attr unit  bytes
scalar Dynamic.node130.queue[0] 	rxBytes:sum 	4605952
attr interpolationmode  none
attr title  "received packet byte length, sum"
attr unit  bytes
statistic Dynamic.node130.queue[0] 	rxBytes:histogram
field count 4498
field mean 1024
field stddev 0
field sum 4605952
field sqrsum 4716494848
field min 1024
field max 1024
attr interpolationmode  none
attr title  "received packet byte length, histogram"
attr unit  bytes
bin	-INF	0
bin	1023	0
bin	1024	4498
bin	1025	0
scalar Dynamic.node130.queue[0] 	txBytes:count 	4438
attr interpolationmode  none
attr title  "transmitting packet byte length, count"
attr unit  bytes
scalar Dynamic.node130.queue[0] 	txBytes:sum 	4544512
attr interpolationmode  none
attr title  "transmitting packet byte length, sum"
attr unit  bytes
statistic Dynamic.node130.queue[0] 	txBytes:histogram
field count 4438
field mean 1024
field stddev 0
field sum 4544512
field sqrsum 4653580288
field min 1024
field max 1024
attr interpolationmode  none
attr title  "transmitting packet byte length, histogram"
attr unit  bytes
bin	-INF	0
bin	1023	0
bin	1024	4438
bin	1025	0
scalar Dynamic.node130.queue[0] 	busy:timeavg 	0.038176670472848
attr interpolationmode  sample-hold
attr title  "server busy state, timeavg"
scalar Dynamic.node130.queue[0] 	qlen:timeavg 	0.00010688928721467
attr interpolationmode  sample-hold
attr title  "queue length, timeavg"
scalar Dynamic.node130.queue[0] 	qlen:max 	1
attr interpolationmode  sample-hold
attr title  "queue length, max"
scalar Dynamic.node130.queue[0] 	drop:count 	0
attr interpolationmode  none
attr title  "dropped packet byte length, count"
attr unit  bytes
scalar Dynamic.node130.queue[0] 	drop:sum 	0
attr interpolationmode  none
attr title  "dropped packet byte length, sum"
attr unit  bytes
scalar Dynamic.node130.queue[1] 	rxBytes:count 	4685
attr interpolationmode  none
attr title  "received packet byte length, count"
attr unit  bytes
scalar Dynamic.node130.queue[1] 	rxBytes:sum 	4797440
attr interpolationmode  none
attr title  "received packet byte length, sum"
attr unit  bytes
statistic Dynamic.node130.queue[1] 	rxBytes:histogram
field count 4685
field mean 1024
field stddev 0
field sum 4797440
field sqrsum 4912578560
field min 1024
field max 1024
attr interpolationmode  none
attr title  "received packet byte length, histogram"
attr unit  bytes
bin	-INF	0
bin	1023	0
bin	1024	4685
bin	1025	0
scalar Dynamic.node130.queue[1] 	txBytes:count 	4763
attr interpolationmode  none
attr title  "transmitting packet byte length, count"
attr unit  bytes
scalar Dynamic.node130.queue[1] 	txBytes:sum 	4877312
attr interpolationmode  none
attr title  "transmitting packet byte length, sum"
attr unit  bytes
statistic Dynamic.node130.queue[1] 	txBytes:histogram
field count 4763
field mean 1024
field stddev 0
field sum 4877312
field sqrsum 4994367488
field min 1024
field max 1024
attr interpolationmode  none
attr title  "transmitting packet byte length, histogram"
attr unit  bytes
bin	-INF	0
bin	1023	0
bin	1024	4763
bin	1025	0
scalar Dynamic.node130.queue[1] 	busy:timeavg 	0.040972393299273
attr interpolationmode  sample-hold
attr title  "server busy state, timeavg"
scalar Dynamic.node130.queue[1] 	qlen:timeavg 	0.00022733437541312
attr interpolationmode  sample-hold
attr title  "queue length, timeavg"
scalar Dynamic.node130.queue[1] 	qlen:max 	1
attr interpolationmode  sample-hold
attr title  "queue length, max"
scalar Dynamic.node130.queue[1] 	drop:count 	0
attr interpolationmode  none
attr title  "dropped packet byte length, count"
attr unit  bytes
scalar Dynamic.node130.queue[1] 	drop:sum 	0
attr interpolationmode  none
attr title  "dropped packet byte length, sum"
attr unit  bytes
scalar Dynamic.node140.app 	hopCount:mean 	4.4077976817703
attr interpolationmode  none
attr title  "hop count of arrived packets, mean"
scalar Dynamic.node140.app 	hopCount:max 	8
attr interpolationmode  none
attr title  "hop count of arrived packets, max"
scalar Dynamic.node140.app 	endToEndDelay:mean 	0.08053113472442
attr interpolationmode  none
attr title  "end-to-end delay of arrived packets, mean"
attr unit  s
scalar Dynamic.node140.app 	endToEndDelay:max 	0.155206236211
attr interpolationmode  none
attr title  "end-to-end delay of arrived packets, max"
attr unit  s
statistic Dynamic.node140.routing 	outputIf:histogram
field count 7449
field mean 0.85662505034233
field stddev 1.1305063094966
field sum 6381
field sqrsum 14985
field min -1
field max 2
attr interpolationmode  none
attr title  "output interface for each routed packet, histogram"
[...]
attr title  "transmitting packet byte length, count"
attr unit  bytes
scalar Dynamic.node531.queue[1] 	txBytes:sum 	41984
attr interpolationmode  none
attr title  "transmitting packet byte length, sum"
attr unit  bytes
statistic Dynamic.node531.queue[1] 	txBytes:histogram
field count 41
field mean 1024
field stddev 0
field sum 41984
field sqrsum 42991616
field min 1024
field max 1024
attr interpolationmode  none
attr title  "transmitting packet byte length, histogram"
attr unit  bytes
bin	-INF	0
bin	1023	0
bin	1024	41
bin	1025	0
scalar Dynamic.node531.queue[1] 	busy:timeavg 	0.00035269118733363
attr interpolationmode  sample-hold
attr title  "server busy state, timeavg"
scalar Dynamic.node531.queue[1] 	qlen:timeavg 	0
attr interpolationmode  sample-hold
attr title  "queue length, timeavg"
scalar Dynamic.node531.queue[1] 	qlen:max 	0
attr interpolationmode  sample-hold
attr title  "queue length, max"
scalar Dynamic.node531.queue[1] 	drop:count 	0
attr interpolationmode  none
attr title  "dropped packet byte length, count"
attr unit  bytes
scalar Dynamic.node531.queue[1] 	drop:sum 	0
attr interpolationmode  none
attr title  "dropped packet byte length, sum"
attr unit  bytes
scalar Dynamic.node531.queue[2] 	rxBytes:count 	2178
attr interpolationmode  none
attr title  "received packet byte length, count"
attr unit  bytes
scalar Dynamic.node531.queue[2] 	rxBytes:sum 	2230272
attr interpolationmode  none
attr title  "received packet byte length, sum"
attr unit  bytes
statistic Dynamic.node531.queue[2] 	rxBytes:histogram
field count 2178
field mean 1024
field stddev 0
field sum 2230272
field sqrsum 2283798528
field min 1024
field max 1024
attr interpolationmode  none
attr title  "received packet byte length, histogram"
attr unit  bytes
bin	-INF	0
bin	1023	0
bin	1024	2178
bin	1025	0
scalar Dynamic.node531.queue[2] 	txBytes:count 	2182
attr interpolationmode  none
attr title  "transmitting packet byte length, count"
attr unit  bytes
scalar Dynamic.node531.queue[2] 	txBytes:sum 	2234368
attr interpolationmode  none
attr title  "transmitting packet byte length, sum"
attr unit  bytes
statistic Dynamic.node531.queue[2] 	txBytes:histogram
field count 2182
field mean 1024
field stddev 0
field sum 2234368
field sqrsum 2287992832
field min 1024
field max 1024
attr interpolationmode  none
attr title  "transmitting packet byte length, histogram"
attr unit  bytes
bin	-INF	0
bin	1023	0
bin	1024	2182
bin	1025	0
scalar Dynamic.node531.queue[2] 	busy:timeavg 	0.018770052945414
attr interpolationmode  sample-hold
attr title  "server busy state, timeavg"
scalar Dynamic.node531.queue[2] 	qlen:timeavg 	0.000142321534195
attr interpolationmode  sample-hold
attr title  "queue length, timeavg"
scalar Dynamic.node531.queue[2] 	qlen:max 	1
attr interpolationmode  sample-hold
attr title  "queue length, max"
scalar Dynamic.node531.queue[2] 	drop:count 	0
attr interpolationmode  none
attr title  "dropped packet byte length, count"
attr unit  bytes
scalar Dynamic.node531.queue[2] 	drop:sum 	0
attr interpolationmode  none
attr title  "dropped packet byte length, sum"
attr unit  bytes
scalar Dynamic.node531.queue[3] 	rxBytes:count 	944
attr interpolationmode  none
attr title  "received packet byte length, count"
attr unit  bytes
scalar Dynamic.node531.queue[3] 	rxBytes:sum 	966656
attr interpolationmode  none
attr title  "received packet byte length, sum"
attr unit  bytes
statistic Dynamic.node531.queue[3] 	rxBytes:histogram
field count 944
field mean 1024
field stddev 0
field sum 966656
field sqrsum 989855744
field min 1024
field max 1024
attr interpolationmode  none
attr title  "received packet byte length, histogram"
attr unit  bytes
bin	-INF	0
bin	1023	0
bin	1024	944
bin	1025	0
scalar Dynamic.node531.queue[3] 	txBytes:count 	934
attr interpolationmode  none
attr title  "transmitting packet byte length, count"
attr unit  bytes
scalar Dynamic.node531.queue[3] 	txBytes:sum 	956416
attr interpolationmode  none
attr title  "transmitting packet byte length, sum"
attr unit  bytes
statistic Dynamic.node531.queue[3] 	txBytes:histogram
field count 934
field mean 1024
field stddev 0
field sum 956416
field sqrsum 979369984
field min 1024
field max 1024
attr interpolationmode  none
attr title  "transmitting packet byte length, histogram"
attr unit  bytes
bin	-INF	0
bin	1023	0
bin	1024	934
bin	1025	0
scalar Dynamic.node531.queue[3] 	busy:timeavg 	0.0080344772919419
attr interpolationmode  sample-hold
attr title  "server busy state, timeavg"
scalar Dynamic.node531.queue[3] 	qlen:timeavg 	9.9759251317146e-06
attr interpolationmode  sample-hold
attr title  "queue length, timeavg"
scalar Dynamic.node531.queue[3] 	qlen:max 	1
attr interpolationmode  sample-hold
attr title  "queue length, max"
scalar Dynamic.node531.queue[3] 	drop:count 	0
attr interpolationmode  none
attr title  "dropped packet byte length, count"
attr unit  bytes
scalar Dynamic.node531.queue[3] 	drop:sum 	0
attr interpolationmode  none
attr title  "dropped packet byte length, sum"
attr unit  bytes
scalar Dynamic.node541.app 	hopCount:mean 	6.3131524008351
attr interpolationmode  none
attr title  "hop count of arrived packets, mean"
scalar Dynamic.node541.app 	hopCount:max 	12
attr interpolationmode  none
attr title  "hop count of arrived packets, max"
scalar Dynamic.node541.app 	endToEndDelay:mean 	0.11597475055214
attr interpolationmode  none
attr title  "end-to-end delay of arrived packets, mean"
attr unit  s
scalar Dynamic.node541.app 	endToEndDelay:max 	0.227945070007
attr interpolationmode  none
attr title  "end-to-end delay of arrived packets, max"
attr unit  s
statistic Dynamic.node541.routing 	outputIf:histogram
field count 3486
field mean -0.029546758462421
field stddev 0.72066378693244
field sum -103
field sqrsum 1813
field min -1
field max 1
attr interpolationmode  none
attr title  "output interface for each routed packet, histogram"
bin	-INF	0
bin	-2	0
bin	-1	958
bin	0	1673
bin	1	855
bin	2	0
scalar Dynamic.node541.routing 	drop:count 	0
attr interpolationmode  none
attr title  "dropped packet byte length, count"
attr unit  bytes
scalar Dynamic.node541.routing 	drop:sum 	0
attr interpolationmode  none
attr title  "dropped packet byte length, sum"
attr unit  bytes
scalar Dynamic.node541.queue[0] 	rxBytes:count 	1693
attr interpolationmode  none
attr title  "received packet byte length, count"
attr unit  bytes
scalar Dynamic.node541.queue[0] 	rxBytes:sum 	1733632
attr interpolationmode  none
attr title  "received packet byte length, sum"
attr unit  bytes
statistic Dynamic.node541.queue[0] 	rxBytes:histogram
field count 1693
field mean 1024
field stddev 0
field sum 1733632
field sqrsum 1775239168
field min 1024
field max 1024
attr interpolationmode  none
attr title  "received packet byte length, histogram"
attr unit  bytes
bin	-INF	0
bin	1023	0
bin	1024	1693
bin	1025	0
scalar Dynamic.node541.queue[0] 	txBytes:count 	1673
attr interpolationmode  none
attr title  "transmitting packet byte length, count"
attr unit  bytes
scalar Dynamic.node541.queue[0] 	txBytes:sum 	1713152
attr interpolationmode  none
attr title  "transmitting packet byte length, sum"
attr unit  bytes
statistic Dynamic.node541.queue[0] 	txBytes:histogram
field count 1673
field mean 1024
field stddev 0
field sum 1713152
field sqrsum 1754267648
field min 1024
field max 1024
attr interpolationmode  none
attr title  "transmitting packet byte length, histogram"
attr unit  bytes
bin	-INF	0
bin	1023	0
bin	1024	1673
bin	1025	0
scalar Dynamic.node541.queue[0] 	busy:timeavg 	0.014391520888028
attr interpolationmode  sample-hold
attr title  "server busy state, timeavg"
scalar Dynamic.node541.queue[0] 	qlen:timeavg 	6.4537509790744e-05
attr interpolationmode  sample-hold
attr title  "queue length, timeavg"
scalar Dynamic.node541.queue[0] 	qlen:max 	1
attr interpolationmode  sample-hold
attr title  "queue length, max"
scalar Dynamic.node541.queue[0] 	drop:count 	0
attr interpolationmode  none
attr title  "dropped packet byte length, count"
attr unit  bytes
scalar Dynamic.node541.queue[0] 	drop:sum 	0
attr interpolationmode  none
attr title  "dropped packet byte length, sum"
attr unit  bytes
scalar Dynamic.node541.queue[1] 	rxBytes:count 	841
attr interpolationmode  none
attr title  "received packet byte length, count"
attr unit  bytes
scalar Dynamic.node541.queue[1] 	rxBytes:sum 	861184
attr interpolationmode  none
attr title  "received packet byte length, sum"
attr unit  bytes
statistic Dynamic.node541.queue[1] 	rxBytes:histogram
field count 841
field mean 1024
field stddev 0
field sum 861184
field sqrsum 881852416
field min 1024
field max 1024
attr interpolationmode  none
attr title  "received packet byte length, histogram"
attr unit  bytes
bin	-INF	0
bin	1023	0
bin	1024	841
bin	1025	0
scalar Dynamic.node541.queue[1] 	txBytes:count 	855
attr interpolationmode  none
attr title  "transmitting packet byte length, count"
attr unit  bytes
scalar Dynamic.node541.queue[1] 	txBytes:sum 	875520
attr interpolationmode  none
attr title  "transmitting packet byte length, sum"
attr unit  bytes
statistic Dynamic.node541.queue[1] 	txBytes:histogram
field count 855
field mean 1024
field stddev 0
field sum 875520
field sqrsum 896532480
field min 1024
field max 1024
attr interpolationmode  none
attr title  "transmitting packet byte length, histogram"
attr unit  bytes
bin	-INF	0
bin	1023	0
bin	1024	855
bin	1025	0
scalar Dynamic.node541.queue[1] 	busy:timeavg 	0.0073549015895186
attr interpolationmode  sample-hold
attr title  "server busy state, timeavg"
scalar Dynamic.node541.queue[1] 	qlen:timeavg 	0
attr interpolationmode  sample-hold
attr title  "queue length, timeavg"
scalar Dynamic.node541.queue[1] 	qlen:max 	0
attr interpolationmode  sample-hold
attr title  "queue length, max"
scalar Dynamic.node541.queue[1] 	drop:count 	0
attr interpolationmode  none
attr title  "dropped packet byte length, count"
attr unit  bytes
scalar Dynamic.node541.queue[1] 	drop:sum 	0
attr interpolationmode  none
attr title  "dropped packet byte length, sum"
attr unit  bytes
scalar Dynamic.node551.app 	hopCount:mean 	7.3021052631579
attr interpolationmode  none
attr title  "hop count of arrived packets, mean"
scalar Dynamic.node551.app 	hopCount:max 	13
attr interpolationmode  none
attr title  "hop count of arrived packets, max"
scalar Dynamic.node551.app 	endToEndDelay:mean 	0.13382960359406
attr interpolationmode  none
attr title  "end-to-end delay of arrived packets, mean"
attr unit  s
scalar Dynamic.node551.app 	endToEndDelay:max 	0.24435463124
attr interpolationmode  none
attr title  "end-to-end delay of arrived packets, max"
attr unit  s
statistic Dynamic.node551.routing 	outputIf:histogram
field count 1937
field mean -0.41507485802788
field stddev 0.62748671174959
field sum -804
field sqrsum 1096
field min -1
field max 1
attr interpolationmode  none
attr title  "output interface for each routed packet, histogram"
bin	-INF	0
bin	-2	0
bin	-1	950
bin	0	841
bin	1	146
bin	2	0
scalar Dynamic.node551.routing 	drop:count 	0
attr interpolationmode  none
attr title  "dropped packet byte length, count"
attr unit  bytes
scalar Dynamic.node551.routing 	drop:sum 	0
attr interpolationmode  none
attr title  "dropped packet byte length, sum"
attr unit  bytes
scalar Dynamic.node551.queue[0] 	rxBytes:count 	855
attr interpolationmode  none
attr title  "received packet byte length, count"
attr unit  bytes
scalar Dynamic.node551.queue[0] 	rxBytes:sum 	875520
attr interpolationmode  none
attr title  "received packet byte length, sum"
attr unit  bytes
statistic Dynamic.node551.queue[0] 	rxBytes:histogram
field count 855
field mean 1024
field stddev 0
field sum 875520
field sqrsum 896532480
field min 1024
field max 1024
attr interpolationmode  none
attr title  "received packet byte length, histogram"
attr unit  bytes
bin	-INF	0
bin	1023	0
bin	1024	855
bin	1025	0
scalar Dynamic.node551.queue[0] 	txBytes:count 	841
attr interpolationmode  none
attr title  "transmitting packet byte length, count"
attr unit  bytes
scalar Dynamic.node551.queue[0] 	txBytes:sum 	861184
attr interpolationmode  none
attr title  "transmitting packet byte length, sum"
attr unit  bytes
statistic Dynamic.node551.queue[0] 	txBytes:histogram
field count 841
field mean 1024
field stddev 0
field sum 861184
field sqrsum 881852416
field min 1024
field max 1024
attr interpolationmode  none
attr title  "transmitting packet byte length, histogram"
attr unit  bytes
bin	-INF	0
bin	1023	0
bin	1024	841
bin	1025	0
scalar Dynamic.node551.queue[0] 	busy:timeavg 	0.0072344704523803
attr interpolationmode  sample-hold
attr title  "server busy state, timeavg"
scalar Dynamic.node551.queue[0] 	qlen:timeavg 	3.3060985774847e-05
attr interpolationmode  sample-hold
attr title  "queue length, timeavg"
scalar Dynamic.node551.queue[0] 	qlen:max 	1
attr interpolationmode  sample-hold
attr title  "queue length, max"
scalar Dynamic.node551.queue[0] 	drop:count 	0
attr interpolationmode  none
attr title  "dropped packet byte length, count"
attr unit  bytes
scalar Dynamic.node551.queue[0] 	drop:sum 	0
attr interpolationmode  none
attr title  "dropped packet byte length, sum"
attr unit  bytes
scalar Dynamic.node551.queue[1] 	rxBytes:count 	118
attr interpolationmode  none
attr title  "received packet byte length, count"
attr unit  bytes
scalar Dynamic.node551.queue[1] 	rxBytes:sum 	120832
attr interpolationmode  none
attr title  "received packet byte length, sum"
attr unit  bytes
statistic Dynamic.node551.queue[1] 	rxBytes:histogram
field count 118
field mean 1024
field stddev 0
field sum 120832
field sqrsum 123731968
field min 1024
field max 1024
attr interpolationmode  none
attr title  "received packet byte length, histogram"
attr unit  bytes
bin	-INF	0
bin	1023	0
bin	1024	118
bin	1025	0
scalar Dynamic.node551.queue[1] 	txBytes:count 	146
attr interpolationmode  none
attr title  "transmitting packet byte length, count"
attr unit  bytes
scalar Dynamic.node551.queue[1] 	txBytes:sum 	149504
attr interpolationmode  none
attr title  "transmitting packet byte length, sum"
attr unit  bytes
statistic Dynamic.node551.queue[1] 	txBytes:histogram
field count 146
field mean 1024
field stddev 0
field sum 149504
field sqrsum 153092096
field min 1024
field max 1024
attr interpolationmode  none
attr title  "transmitting packet byte length, histogram"
attr unit  bytes
bin	-INF	0
bin	1023	0
bin	1024	146
bin	1025	0
scalar Dynamic.node551.queue[1] 	busy:timeavg 	0.001255924715871
attr interpolationmode  sample-hold
attr title  "server busy state, timeavg"
scalar Dynamic.node551.queue[1] 	qlen:timeavg 	0
attr interpolationmode  sample-hold
attr title  "queue length, timeavg"
scalar Dynamic.node551.queue[1] 	qlen:max 	0
attr interpolationmode  sample-hold
attr title  "queue length, max"
scalar Dynamic.node551.queue[1] 	drop:count 	0
attr interpolationmode  none
attr title  "dropped packet byte length, count"
attr unit  bytes
scalar Dynamic.node551.queue[1] 	drop:sum 	0
attr interpolationmode  none
attr title  "dropped packet byte length, sum"
attr unit  bytes
scalar Dynamic.node561.app 	hopCount:mean 	7.0349946977731
attr interpolationmode  none
attr title  "hop count of arrived packets, mean"
scalar Dynamic.node561.app 	hopCount:max 	13
attr interpolationmode  none
attr title  "hop count of arrived packets, max"
scalar Dynamic.node561.app 	endToEndDelay:mean 	0.12876216980212
attr interpolationmode  none
attr title  "end-to-end delay of arrived packets, mean"
attr unit  s
scalar Dynamic.node561.app 	endToEndDelay:max 	0.245801849492
attr interpolationmode  none
attr title  "end-to-end delay of arrived packets, max"
attr unit  s
statistic Dynamic.node561.routing 	outputIf:histogram
field count 2005
field mean -0.41147132169576
field stddev 0.60003998519501
field sum -825
field sqrsum 1061
field min -1
field max 1
attr interpolationmode  none
attr title  "output interface for each routed packet, histogram"
bin	-INF	0
bin	-2	0
bin	-1	943
bin	0	944
bin	1	118
bin	2	0
scalar Dynamic.node561.routing 	drop:count 	0
attr interpolationmode  none
attr title  "dropped packet byte length, count"
attr unit  bytes
scalar Dynamic.node561.routing 	drop:sum 	0
attr interpolationmode  none
attr title  "dropped packet byte length, sum"
attr unit  bytes
scalar Dynamic.node561.queue[0] 	rxBytes:count 	934
attr interpolationmode  none
attr title  "received packet byte length, count"
attr unit  bytes
scalar Dynamic.node561.queue[0] 	rxBytes:sum 	956416
attr interpolationmode  none
attr title  "received packet byte length, sum"
attr unit  bytes
statistic Dynamic.node561.queue[0] 	rxBytes:histogram
field count 934
field mean 1024
field stddev 0
field sum 956416
field sqrsum 979369984
field min 1024
field max 1024
attr interpolationmode  none
attr title  "received packet byte length, histogram"
attr unit  bytes
bin	-INF	0
bin	1023	0
bin	1024	934
bin	1025	0
scalar Dynamic.node561.queue[0] 	txBytes:count 	944
attr interpolationmode  none
attr title  "transmitting packet byte length, count"
attr unit  bytes
scalar Dynamic.node561.queue[0] 	txBytes:sum 	966656
attr interpolationmode  none
attr title  "transmitting packet byte length, sum"
attr unit  bytes
statistic Dynamic.node561.queue[0] 	txBytes:histogram
field count 944
field mean 1024
field stddev 0
field sum 966656
field sqrsum 989855744
field min 1024
field max 1024
attr interpolationmode  none
attr title  "transmitting packet byte length, histogram"
attr unit  bytes
bin	-INF	0
bin	1023	0
bin	1024	944
bin	1025	0
scalar Dynamic.node561.queue[0] 	busy:timeavg 	0.008120499532755
attr interpolationmode  sample-hold
attr title  "server busy state, timeavg"
scalar Dynamic.node561.queue[0] 	qlen:timeavg 	5.1624669441861e-05
attr interpolationmode  sample-hold
attr title  "queue length, timeavg"
scalar Dynamic.node561.queue[0] 	qlen:max 	1
attr interpolationmode  sample-hold
attr title  "queue length, max"
scalar Dynamic.node561.queue[0] 	drop:count 	0
attr interpolationmode  none
attr title  "dropped packet byte length, count"
attr unit  bytes
scalar Dynamic.node561.queue[0] 	drop:sum 	0
attr interpolationmode  none
attr title  "dropped packet byte length, sum"
attr unit  bytes
scalar Dynamic.node561.queue[1] 	rxBytes:count 	146
attr interpolationmode  none
attr title  "received packet byte length, count"
attr unit  bytes
scalar Dynamic.node561.queue[1] 	rxBytes:sum 	149504
attr interpolationmode  none
attr title  "received packet byte length, sum"
attr unit  bytes
statistic Dynamic.node561.queue[1] 	rxBytes:histogram
field count 146
field mean 1024
field stddev 0
field sum 149504
field sqrsum 153092096
field min 1024
field max 1024
attr interpolationmode  none
attr title  "received packet byte length, histogram"
attr unit  bytes
bin	-INF	0
bin	1023	0
bin	1024	146
bin	1025	0
scalar Dynamic.node561.queue[1] 	txBytes:count 	118
attr interpolationmode  none
attr title  "transmitting packet byte length, count"
attr unit  bytes
scalar Dynamic.node561.queue[1] 	txBytes:sum 	120832
attr interpolationmode  none
attr title  "transmitting packet byte length, sum"
attr unit  bytes
statistic Dynamic.node561.queue[1] 	txBytes:histogram
field count 118
field mean 1024
field stddev 0
field sum 120832
field sqrsum 123731968
field min 1024
field max 1024
attr interpolationmode  none
attr title  "transmitting packet byte length, histogram"
attr unit  bytes
bin	-INF	0
bin	1023	0
bin	1024	118
bin	1025	0
scalar Dynamic.node561.queue[1] 	busy:timeavg 	0.0010150624415944
attr interpolationmode  sample-hold
attr title  "server busy state, timeavg"
scalar Dynamic.node561.queue[1] 	qlen:timeavg 	0
attr interpolationmode  sample-hold
attr title  "queue length, timeavg"
scalar Dynamic.node561.queue[1] 	qlen:max 	0
attr interpolationmode  sample-hold
attr title  "queue length, max"
scalar Dynamic.node561.queue[1] 	drop:count 	0
attr interpolationmode  none
attr title  "dropped packet byte length, count"
attr unit  bytes
scalar Dynamic.node561.queue[1] 	drop:sum 	0
attr interpolationmode  none
attr title  "dropped packet byte length, sum"
attr unit  bytes
