version 2
run NetBuilder-0-20171209-14:03:29-6677
attr configname NetBuilder
attr datetime 20171209-14:03:29
attr experiment NetBuilder
attr inifile omnetpp.ini
attr iterationvars ""
attr iterationvarsf ""
attr measurement ""
attr network networks.Dynamic
attr processid 6677
attr repetition 0
attr replication #0
attr resultdir results
attr runnumber 0
attr seedset 0
param **.address "int(replace(fullName(), \"node\", \"\"))"
param **.app.packetLength "1024 bytes"
param **.appType "\"App\""
param **.behavior "int(replace(fullName(), \"node\", \"\"))%10"
param **.destAddresses "\"10 20 30 40 50 60 70 80 90 100 110 120 130 140 150 160 170 180 190 210 220 230 250 260 270 280 290 300 310 320 451 461 471 481 491 501 511 531 541 551 561\""

vector 49  Dynamic.node501.app  endToEndDelay:vector  ETV
attr interpolationmode  none
attr title  "end-to-end delay of arrived packets, vector"
attr unit  s
vector 14  Dynamic.node150.app  endToEndDelay:vector  ETV
attr interpolationmode  none
attr title  "end-to-end delay of arrived packets, vector"
attr unit  s
vector 31  Dynamic.node320.app  endToEndDelay:vector  ETV
attr interpolationmode  none
attr title  "end-to-end delay of arrived packets, vector"
attr unit  s
vector 46  Dynamic.node471.app  endToEndDelay:vector  ETV
attr interpolationmode  none
attr title  "end-to-end delay of arrived packets, vector"
attr unit  s
vector 1  Dynamic.node20.app  endToEndDelay:vector  ETV
attr interpolationmode  none
attr title  "end-to-end delay of arrived packets, vector"
attr unit  s
vector 25  Dynamic.node260.app  endToEndDelay:vector  ETV
attr interpolationmode  none
attr title  "end-to-end delay of arrived packets, vector"
attr unit  s
vector 11  Dynamic.node120.app  endToEndDelay:vector  ETV
attr interpolationmode  none
attr title  "end-to-end delay of arrived packets, vector"
attr unit  s
vector 30  Dynamic.node310.app  endToEndDelay:vector  ETV
attr interpolationmode  none
attr title  "end-to-end delay of arrived packets, vector"
attr unit  s
vector 0  Dynamic.node10.app  endToEndDelay:vector  ETV
attr interpolationmode  none
attr title  "end-to-end delay of arrived packets, vector"
attr unit  s
vector 45  Dynamic.node461.app  endToEndDelay:vector  ETV
attr interpolationmode  none
attr title  "end-to-end delay of arrived packets, vector"
attr unit  s
vector 17  Dynamic.node180.app  endToEndDelay:vector  ETV
attr interpolationmode  none
attr title  "end-to-end delay of arrived packets, vector"
attr unit  s
vector 21  Dynamic.node220.app  endToEndDelay:vector  ETV
attr interpolationmode  none
attr title  "end-to-end delay of arrived packets, vector"
attr unit  s
vector 5  Dynamic.node60.app  endToEndDelay:vector  ETV
attr interpolationmode  none
attr title  "end-to-end delay of arrived packets, vector"
attr unit  s
vector 29  Dynamic.node300.app  endToEndDelay:vector  ETV
attr interpolationmode  none
attr title  "end-to-end delay of arrived packets, vector"
attr unit  s
vector 6  Dynamic.node70.app  endToEndDelay:vector  ETV
attr interpolationmode  none
attr title  "end-to-end delay of arrived packets, vector"
attr unit  s
vector 3  Dynamic.node40.app  endToEndDelay:vector  ETV
attr interpolationmode  none
attr title  "end-to-end delay of arrived packets, vector"
attr unit  s
vector 55  Dynamic.node561.app  endToEndDelay:vector  ETV
attr interpolationmode  none
attr title  "end-to-end delay of arrived packets, vector"
attr unit  s
vector 22  Dynamic.node230.app  endToEndDelay:vector  ETV
attr interpolationmode  none
attr title  "end-to-end delay of arrived packets, vector"
attr unit  s
vector 13  Dynamic.node140.app  endToEndDelay:vector  ETV
attr interpolationmode  none
attr title  "end-to-end delay of arrived packets, vector"
attr unit  s
vector 18  Dynamic.node190.app  endToEndDelay:vector  ETV
attr interpolationmode  none
attr title  "end-to-end delay of arrived packets, vector"
attr unit  s
vector 44  Dynamic.node451.app  endToEndDelay:vector  ETV
attr interpolationmode  none
attr title  "end-to-end delay of arrived packets, vector"
attr unit  s
vector 50  Dynamic.node511.app  endToEndDelay:vector  ETV
attr interpolationmode  none
attr title  "end-to-end delay of arrived packets, vector"
attr unit  s
vector 24  Dynamic.node250.app  endToEndDelay:vector  ETV
attr interpolationmode  none
attr title  "end-to-end delay of arrived packets, vector"
attr unit  s
vector 48  Dynamic.node491.app  endToEndDelay:vector  ETV
attr interpolationmode  none
attr title  "end-to-end delay of arrived packets, vector"
attr unit  s
vector 16  Dynamic.node170.app  endToEndDelay:vector  ETV
attr interpolationmode  none
attr title  "end-to-end delay of arrived packets, vector"
attr unit  s
vector 26  Dynamic.node270.app  endToEndDelay:vector  ETV
attr interpolationmode  none
attr title  "end-to-end delay of arrived packets, vector"
attr unit  s
vector 8  Dynamic.node90.app  endToEndDelay:vector  ETV
attr interpolationmode  none
attr title  "end-to-end delay of arrived packets, vector"
attr unit  s
vector 27  Dynamic.node280.app  endToEndDelay:vector  ETV
attr interpolationmode  none
attr title  "end-to-end delay of arrived packets, vector"
attr unit  s
vector 20  Dynamic.node210.app  endToEndDelay:vector  ETV
attr interpolationmode  none
attr title  "end-to-end delay of arrived packets, vector"
attr unit  s
vector 15  Dynamic.node160.app  endToEndDelay:vector  ETV
attr interpolationmode  none
attr title  "end-to-end delay of arrived packets, vector"
attr unit  s
vector 53  Dynamic.node541.app  endToEndDelay:vector  ETV
attr interpolationmode  none
attr title  "end-to-end delay of arrived packets, vector"
attr unit  s
vector 9  Dynamic.node100.app  endToEndDelay:vector  ETV
attr interpolationmode  none
attr title  "end-to-end delay of arrived packets, vector"
attr unit  s
vector 52  Dynamic.node531.app  endToEndDelay:vector  ETV
attr interpolationmode  none
attr title  "end-to-end delay of arrived packets, vector"
attr unit  s
vector 28  Dynamic.node290.app  endToEndDelay:vector  ETV
attr interpolationmode  none
attr title  "end-to-end delay of arrived packets, vector"
attr unit  s
vector 47  Dynamic.node481.app  endToEndDelay:vector  ETV
attr interpolationmode  none
attr title  "end-to-end delay of arrived packets, vector"
attr unit  s
vector 10  Dynamic.node110.app  endToEndDelay:vector  ETV
attr interpolationmode  none
attr title  "end-to-end delay of arrived packets, vector"
attr unit  s
vector 7  Dynamic.node80.app  endToEndDelay:vector  ETV
attr interpolationmode  none
attr title  "end-to-end delay of arrived packets, vector"
attr unit  s
vector 2  Dynamic.node30.app  endToEndDelay:vector  ETV
attr interpolationmode  none
attr title  "end-to-end delay of arrived packets, vector"
attr unit  s
vector 4  Dynamic.node50.app  endToEndDelay:vector  ETV
attr interpolationmode  none
attr title  "end-to-end delay of arrived packets, vector"
attr unit  s
vector 54  Dynamic.node551.app  endToEndDelay:vector  ETV
attr interpolationmode  none
attr title  "end-to-end delay of arrived packets, vector"
attr unit  s
vector 12  Dynamic.node130.app  endToEndDelay:vector  ETV
attr interpolationmode  none
attr title  "end-to-end delay of arrived packets, vector"
attr unit  s
0	477	0.557113996243	0.145536
0	1252	1.062107684591	0.200112
0	1332	1.087812037637	0.145536
0	1661	1.282984140253	0.09096
0	3863	2.811881534948	0.054576
0	4170	3.057297544846	0.145536
0	6610	4.428542045455	0.054576
0	6739	4.512483676076	0.200112
0	9041	6.047503880183	0.09096
0	10201	6.909253119398	0.218304
0	10428	6.996487036893	0.200112
0	11297	7.423918261968	0.229960253608
0	12613	8.390764176886	0.145536
0	15379	10.604562479037	0.109152
0	15866	11.022497023324	0.018192
0	17840	12.390855765979	0.072768
0	18118	12.540414887928	0.109152
0	19735	13.568208493847	0.109152
0	20733	14.311622862845	0.109152
0	22326	15.397959455454	0.054576
0	22340	15.406151455454	0.200897299808
0	25004	17.396765747105	0.109152
0	25946	18.21022284288	0.036384
0	26822	18.787781770035	0.200112
0	27945	19.485340850329	0.09096
0	28154	19.745718180658	0.109152
0	28327	19.855883695549	0.163728
0	33164	22.98046025287	0.200112
0	33226	23.123821492448	0.218304
0	34550	24.320385817016	0.200112
0	36269	25.385227138534	0.109152
0	37452	26.063163845503	0.200112
0	40222	27.624550403977	0.18192
0	41219	28.292367831596	0.127344
0	41884	28.877397125606	0.200112
0	42335	29.122417575287	0.145536
0	42645	29.318612731348	0.072768
0	43584	30.050775033157	0.072768
0	44191	30.410404594803	0.059120108881
0	45381	31.088941072592	0.09096
0	50055	34.420286629955	0.054576
0	50780	34.895253003267	0.218304
0	51194	35.086282638033	0.145536
0	52077	35.717483766982	0.072768
0	52617	36.122055422738	0.054576
0	53232	36.567671533526	0.072768
0	53457	36.901056088256	0.072768
0	53920	37.292218424203	0.054576
0	56672	38.873879535402	0.09096
0	57021	39.134265802042	0.09096
0	57140	39.206664474495	0.200112
0	57468	39.51697712034	0.218304
0	59139	40.740014875715	0.145536
0	61639	42.619672415902	0.200112
0	61961	42.889958293933	0.109499865814
0	62904	43.366527894219	0.09096
0	64072	43.907082118086	0.205444332381
0	65235	44.765135212594	0.109152
0	65370	44.810210595322	0.163728
0	67830	46.605221710989	0.054576
0	69116	47.352993828337	0.200112
0	70408	48.023009933614	0.072768
0	70460	48.038887678316	0
0	71935	49.224521829532	0.054576
0	74282	50.708750948775	0.093977303166
0	74780	50.926778404759	0.054576
0	76177	51.870078039996	0.054576
0	76497	52.042528123193	0.218304
0	76960	52.397023832182	0.145536
0	77881	53.060268880051	0.018192
0	80669	54.7953690271	0.110204119892
0	82722	55.966543801176	0.109152
0	85638	57.830679777413	0.145536
0	86126	58.095135450564	0.109152
0	86352	58.214340938541	0.200112
0	86465	58.316724233055	0
0	88522	59.579226886889	0.09096
0	93528	62.772419352218	0.072768
0	95475	63.921226145681	0.18192
0	98279	65.285098095879	0.109152
0	99812	66.097965961889	0.200112
0	100158	66.483670601124	0.072768
0	100650	66.763627192111	0.072768
0	103698	68.798054304108	0.145536
0	104185	69.003203465626	0.201705189815
0	105863	69.822521305252	0.218304
0	110181	72.677664529359	0.203725027601
0	111652	74.01720006586	0.109152
0	112044	74.224136617548	0.018192
0	115113	76.189422829908	0.109152
0	115972	76.926966195079	0.127344
0	118054	78.157111961806	0.145536
0	118890	78.616813287248	0.200112
0	120143	79.651955280683	0.200112
0	122500	81.352575695949	0.036384
0	127220	84.611373280843	0.18192
0	128273	85.173368539739	0.145536
0	128593	85.441889598591	0.200112
0	128875	85.670919595694	0.036384
0	131620	87.367626134167	0.054576
0	131981	87.604350296547	0.072768
0	132192	87.706056569246	0.163728
0	133925	88.835098859407	0
0	134746	89.305615464332	0.072768
0	139257	91.617011457985	0.109152
0	142485	93.267444386071	0.18192
0	142825	93.555022789552	0.072768
0	145075	95.263579149266	0.200112
0	146139	95.871884127358	0.163728
0	147468	96.589968467741	0.075430934495
0	149263	97.756211323406	0.036384
0	150039	98.391185449407	0.054576
0	152602	100.29797027299	0.036384
0	158931	103.828438230809	0.018192
0	163207	106.335234947586	0.072768
0	165974	108.06261499936	0.163728
0	166769	108.406711075593	0.072768
0	169549	110.059357352105	0.036384
0	174085	112.985419716472	0
0	175790	114.04009819476	0.109152
0	176079	114.160176139495	0.145536
0	178302	115.564857534677	0.145536
0	179356	116.034457773686	0.109152
0	180180	116.557875545755	0.200112
0	181880	117.36352835075	0.200112
0	183624	118.406821551385	0
0	186211	119.816423558072	0.185481738289
0	187049	120.306785059462	0
0	188413	121.209174658955	0.145536
0	188489	121.251899967996	0.188450114439
0	193307	124.402716440516	0.218304
0	193401	124.48412479808	0.218304
0	195084	125.515365410366	0.145536
0	196701	126.549126549433	0.09096
0	198188	127.434182336097	0.018192
0	198805	127.954521165769	0.109152
0	199126	128.079391422906	0.200112
0	199588	128.256308554674	0.20098751573
0	200727	128.932316036293	0.218304
0	201405	129.215070764477	0.200112
0	202630	129.84513901587	0.218304
0	205073	131.60540738508	0.224534954985
0	205118	131.63473266496	0.163728
0	205614	131.964120213856	0.163728
0	206197	132.183584577871	0.221808613252
0	206852	132.579558322186	0.072768
0	207300	132.869690332635	0.200112
0	207535	133.109447541747	0.163728
0	207971	133.305468832701	0.145536
0	208490	133.673378841334	0.018192
0	208532	133.721439942953	0.091888825518
0	209755	134.648665173538	0.109152
0	210073	134.780242863073	0.072768
0	210249	134.990042758713	0.200112
0	211915	135.664685936225	0.109152
0	212044	135.780921736502	0.200112
0	212128	135.812878914087	0.18192
0	213494	136.602816254434	0.072768
0	214377	136.944810501451	0.054576
0	216691	138.31421540416	0.036384
0	218508	139.202334470941	0.163728
0	219716	139.964914187975	0.200112
0	220947	140.633501232498	0.109152
0	222327	141.584282738709	0.054576
0	225700	143.539527597369	0.036384
0	226092	143.912476647579	0.145536
0	226409	144.192387737417	0.163728
0	230302	146.606248834419	0.218304
0	231111	147.041298963637	0.109152
0	233622	148.884455456414	0.072768
0	236967	150.791267855506	0.206737413955
0	237811	151.444517216156	0.163728
0	238347	151.868328617575	0.145536
0	238362	151.901004923252	0.200112
0	238819	152.437912796553	0.200112
0	239154	152.611676080319	0.163728
0	239170	152.619868080319	0.220658707985
0	239721	152.961572595926	0.200112
0	245648	156.531949048607	0.054576
0	247285	157.513667729548	0.200112
0	249935	159.747576612353	0.163728
0	253755	162.148821230735	0.200112
0	254950	162.642260956833	0.109152
0	257572	163.845801720693	0.163728
0	260545	165.63497869891	0.09096
0	262836	167.169709040014	0.163728
0	263228	167.306041639188	0.054576
0	264095	167.815062161036	0.109152
0	269311	171.990200575364	0.054576
0	270075	172.632724985678	0.109152
0	272981	174.181879692445	0.200112
0	274582	175.362953344939	0.127344
0	275152	175.629945696129	0.018192
0	278613	177.946202974529	0.109152
0	279279	178.448330012628	0.145536
0	282014	180.229814442686	0.218304
0	284666	181.896078150014	0.109152
0	285307	182.365729922476	0.09096
0	287267	183.459780265685	0.145536
0	287538	183.666716139643	0.072768
0	289789	184.872287819867	0
0	290144	185.080824283545	0.072768
0	293438	187.034563778389	0.054576
0	294442	187.569723018875	0.072768
0	294661	187.718026230046	0.218304
0	295184	188.0698974195	0.200112
0	295871	188.603764164396	0.200112
0	296487	189.109532820546	0
0	296809	189.368326620338	0.18192
0	297618	190.138715320039	0.054576
0	297989	190.554785859322	0.018192
0	299921	191.871128223115	0.109152
0	300472	192.217629850552	0.054576
0	301308	192.681171938347	0.163728
0	301610	192.791831070948	0.222015329118
0	304095	194.315480635989	0.072768
0	304323	194.458147006796	0.127344
0	304433	194.511109827647	0.054576
0	306332	195.901295417908	0.200112
0	306425	195.956914416684	0.163728
0	307956	197.099192416696	0.109152
0	308594	197.532652677831	0.145536
0	309374	197.909439782669	0.054576
0	315895	202.29824821179	0.072768
0	316622	202.879395295334	0.218304
0	316631	202.887587295334	0.149244177995
0	317232	203.363196103576	0.200112
0	317686	203.778469584437	0.018192
0	319070	204.974576922973	0
0	319363	205.124816082176	0.054576
0	321680	206.254158219334	0.200112
0	322698	207.075116545119	0.109152
0	324902	208.493496420327	0.163728
0	325009	208.56101127845	0.127344
0	328855	210.775389785624	0.200112
0	330180	211.367559682631	0.018192
0	331157	211.958315220585	0.163728
0	333729	213.788324121939	0.145536
0	334499	214.34882256753	0.109152
0	337644	216.307374625523	0.223891682005
0	341183	218.696593546806	0
0	341531	218.995425608957	0.200112
0	345247	221.091649198668	0.09096
0	346104	221.489159401255	0.09096
0	349337	223.607029652212	0.163728
0	350800	224.602276244652	0.109152
0	351920	225.641480444491	0.072768
0	356509	228.082075675009	0.109152
0	358454	229.296638971764	0.163728
0	359274	229.795053167749	0.200112
0	360513	230.608177810511	0.043257801489
0	364045	232.604794709625	0.054576
0	365901	234.206692101663	0.09096
0	368324	235.86707864715	0.170857243849
0	376055	240.705478010058	0.218304
0	376672	241.0204603014	0.127344
0	376813	241.088227463761	0.163728
0	381700	243.971902823339	0.109152
0	382105	244.198220958566	0.200112
0	383079	244.760827712199	0.109152
0	383283	245.004973497122	0.036384
0	384481	245.739897818932	0.207146787889
0	389320	248.348744462246	0.054576
0	392241	250.776150318023	0.200112
0	392928	251.441909617914	0.054576
0	393374	251.733948515706	0.207981129973
0	393718	251.936886472457	0.072768
0	394009	252.088150389545	0.115237838649
0	394782	252.466948242772	0.074162652239
0	400703	256.524566901894	0.018192
0	400994	256.76759774423	0.127344
0	404019	259.083131297641	0.163728
0	405831	260.375607465487	0.072768
0	406939	261.219290132056	0.200112
0	408455	262.336909187634	0.018192
0	409612	263.159494311684	0.200112
0	411656	264.396774898011	0.054576
0	412596	264.991716127403	0.218304
0	415858	267.06334958898	0.054576
0	416956	268.111670681656	0.109152
0	418738	268.986900506115	0.072768
0	419360	269.351383529475	0.218304
0	419863	269.725261201633	0.109152
0	425770	273.729739943681	0.072768
0	427742	274.932154643757	0.036384
0	430817	277.099729417589	0.018192
0	431303	277.797166990434	0.145536
0	435683	280.56620660695	0.145536
0	436834	281.47517936915	0.113581337394
0	439914	283.572294017742	0.225023973774
0	440747	284.13887400438	0
0	443053	285.58224929689	0.036384
0	447358	288.831854984003	0.127344
0	447429	288.861844727581	0.200112
0	448745	289.86263824157	0.09096
0	450056	290.859064312755	0.036384
0	451123	291.534115105083	0.1501073626
0	451480	291.679870578891	0.072768
0	451721	291.795197679545	0.145536
0	455136	294.019681598052	0.018192
0	456208	294.637016464666	0.036384
0	457552	295.378152197997	0.145536
0	458009	295.730360103495	0.109152
0	458946	296.634022629954	0.018192
0	461872	298.120397200234	0.145536
0	463451	299.166082591924	0.218304
0	464773	300.239490119662	0.054576
0	464960	300.366706899553	0.145536
0	466994	301.410335339809	0.147861544917
0	469789	303.200549619024	0.145536
0	470590	303.761848696661	0.036384
0	471821	304.359715690184	0.200112
0	476494	307.116573220917	0.145536
0	476637	307.203220785799	0.145536
0	478690	308.416769182577	0.054576
0	483414	311.310845020609	0.072768
0	484990	312.422207457897	0.041984714389
0	487144	313.645475346882	0.054576
0	487262	313.724663222035	0.118419819194
0	488168	314.325875330613	0.072768
0	495171	318.062231935472	0.054576
0	500481	321.602504854708	0.18192
0	500606	321.679116129164	0
0	502803	323.290973305433	0.200112
0	506417	325.87665832344	0.072768
0	506950	326.401776311354	0.200112
0	507590	326.888523789337	0.109152
0	508144	327.282000956367	0.218304
0	510790	328.592479664967	0.218304
0	515071	331.34627201736	0.036384
0	515812	331.843671505166	0.09096
0	515840	331.875477172748	0.09096
0	515948	331.962760080615	0.074333024912
0	518360	333.239456228312	0.168131700372
0	518877	333.537467850479	0.218304
0	519101	333.713291050815	0.09096
0	519344	333.867430788645	0.145536
0	521396	335.372788430684	0.036384
0	522052	335.900271311011	0.09096
0	522412	336.020009384974	0
0	524070	336.97150595694	0
0	530047	340.060870563136	0.163728
0	530711	340.518453471745	0.054576
0	533421	342.083211180014	0.09096
0	538045	345.26596589219	0.109152
0	540065	346.709748390971	0.200112
0	540154	346.736862342009	0.036384
0	542489	348.177398230132	0.036384
0	544331	349.133244162685	0.109152
0	544851	349.520048890193	0.200112
0	549577	352.563813644647	0.145536
0	553623	355.329603789532	0.18192
0	558904	358.524433841919	0.097710495616
0	558940	358.567984191946	0.163728
0	560202	359.320594475076	0.036384
0	564435	362.004462029822	0.200112
0	568774	364.755866407365	0.218304
0	570719	365.803500536147	0.072768
0	571044	365.943956972331	0.018192
0	572460	366.969489323416	0
0	573165	367.29321252533	0.036384
0	579259	370.757209655406	0.232595420587
0	579298	370.810835125181	0.054576
0	579990	371.33328191543	0.109152
0	580098	371.424843408805	0.036384
0	580155	371.476739392939	0.145536
0	588695	377.365174729769	0.200112
0	589350	377.843510533978	0.054576
0	590651	378.445400037906	0.218304
0	595004	381.134526972256	0.072768
0	596026	381.729939878493	0.054576
0	599059	383.726703122652	0.109152
0	602552	386.483199365149	0
0	602678	386.68798434269	0.18192
0	603472	387.370641565164	0.054576
0	606599	389.115321090698	0.09096
0	608762	390.353692217338	0.145536
0	609013	390.617041683238	0.072768
0	609357	390.771568582932	0.218304
0	611800	392.564794504561	0.145536
0	611956	392.702894545536	0.072768
0	612803	393.361506174171	0.218304
0	614420	394.326428710079	0.109152
0	614999	394.596321390834	0.218304
0	615035	394.61134740471	0.200112
0	615754	395.277899187321	0.200112
0	615821	395.411251547594	0.109152
0	616197	395.957791254461	0.145536
0	616581	396.237303433756	0.036384
0	617144	396.652475487471	0.09096
0	619432	398.011834227839	0.09096
0	620029	398.405486886465	0.218304
0	620370	398.619003360654	0.036384
0	621574	399.303586976791	0.09096
0	621641	399.349261556422	0.227261755068
0	624265	401.268325186982	0.036384
0	624730	401.601064748053	0.218304
0	630874	405.777541804285	0.09096
0	631782	406.178086830835	0.109152
0	634141	407.692633429105	0.054576
0	634426	407.867401477803	0.226274945942
0	635266	408.271862797675	0.163728
0	636466	409.06000622977	0.054576
0	637659	409.577793664248	0.206000200674
0	638835	410.311652106851	0.218304
0	638967	410.365302844269	0.109152
0	641446	411.561678743817	0.145536
0	641983	411.923705584273	0.109152
0	644044	413.262555404155	0.054576
0	646741	415.047729483609	0.223571276017
0	649069	416.387144863751	0.163728
0	649266	416.512828905447	0.018192
0	655387	420.126231272324	0.18192
0	656504	420.890812765477	0.200112
0	656877	421.096972291237	0.09096
0	658014	421.797779775859	0.054576
0	658478	422.065434233755	0.109152
0	660785	424.130361321876	0.163728
0	663669	426.007698895003	0.054576
0	665652	427.492519727982	0.145536
0	667056	428.650563235096	0.054576
0	668829	429.75686740919	0.145536
0	670540	430.561552639482	0.167980474713
0	670838	430.724777848266	0.127344
0	671699	431.078315145265	0.036384
0	672686	431.546088451772	0.200112
0	672964	431.697269615535	0.109152
0	674273	432.855331584707	0.200112
0	674447	432.905396654505	0.145536
0	676210	434.06423798887	0.054886746649
0	676839	434.437198044121	0.018192
0	678669	435.877904439984	0.036384
0	681149	437.083844593175	0.018192
0	681207	437.10968732663	0.200112
0	682148	437.696194539253	0.036384
0	685057	439.694895606027	0.109152
0	685796	440.257046829362	0.163728
0	691781	443.833670505255	0.109152
0	692260	444.111514333658	0.218304
0	692285	444.131831116376	0.18192
0	693459	445.156968715482	0.054576
0	702515	450.67972207897	0.200112
0	706051	452.565462577667	0.036384
0	707753	453.757007498624	0.109152
0	708384	454.381271572475	0.054576
0	709244	454.984267479631	0.109152
0	716830	459.559347011879	0.09667524724
0	716906	459.661084400779	0.163728
0	717845	460.322735236028	0.109152
0	718203	460.604426242461	0.09096
0	718217	460.612618242461	0.078379462491
0	719587	461.840787169301	0.163728
0	719983	462.110764412485	0.072768
0	720779	462.662085285732	0.224188991461
0	721854	463.466852139557	0.054576
0	726502	466.255811729406	0.072768
0	727605	466.897184690579	0.163728
0	727757	467.021527581824	0.072768
0	728350	467.371696585029	0.09096
0	730568	468.896838071453	0.109152
0	731786	469.683920507882	0.163728
0	732806	470.298847243204	0.036384
0	733090	470.431992661415	0.127344
0	733959	470.813886260694	0.200112
0	734730	471.278017460713	0.200112
0	734797	471.327277586149	0.054576
0	735775	471.93343044738	0.09096
0	736018	472.193242924584	0.072768
0	736626	472.647344335435	0.109152
0	737800	473.434816817831	0.218304
0	739204	474.103050398039	0.20493073875
0	740877	475.665560386732	0.09096
0	741317	475.97620253903	0.218304
0	746091	478.705196891365	0.163728
0	746146	478.732663011996	0.163728
0	748196	479.954833377154	0.109152
0	752811	483.016865531165	0.09096
0	755313	484.554857731324	0.218304
0	756367	485.199899488146	0.036384
0	759677	487.307714481749	0.109152
0	761757	488.853955567916	0.145536
0	762118	489.121612611239	0.200112
0	763393	490.038478277723	0.098626738466
0	763958	490.569695840819	0.166023819969
0	764039	490.662047559827	0.218304
0	764312	490.948341093724	0.109152
0	764323	490.962447900559	0.200112
0	765598	491.521375577577	0.109152
0	767463	492.595784858224	0.218304
0	769647	493.959115460687	0.163728
0	769718	493.983395877438	0.036384
0	770088	494.246037373439	0.200112
0	771078	494.806161488694	0.163728
0	771930	495.181341401488	0.200112
0	772089	495.449157374209	0.09096
0	772189	495.577681616817	0.072768
0	774922	497.270975392523	0.036384
0	775320	497.650411577061	0.054576
0	776509	498.44873431831	0.127344
0	778538	499.760764201355	0.09096
0	780964	501.346171625807	0.203519148578
0	785287	503.769884077801	0.11124467805
0	786751	504.461739615404	0.218304
0	790784	507.360265283913	0
0	792829	508.779528233896	0.072768
0	794966	510.077118696822	0.109152
0	796548	511.068453821524	0.18192
0	797248	511.578046118775	0.072768
0	797440	511.655416408034	0.09096
0	802554	514.661464670169	0.109152
0	805962	517.394571624187	0.218304
0	806995	518.287129357417	0.09096
0	808388	519.149876462256	0.163728
0	812976	522.672855225661	0.218304
0	813211	522.868918291228	0.218304
0	815138	524.14342122266	0.109152
0	819395	526.925797691365	0.09096
0	820026	527.277064708919	0.218304
0	823508	529.509709330729	0.163728
0	824039	530.065280593715	0.218304
0	826375	532.12398261504	0.200112
0	830122	534.748665246201	0.018192
0	833550	536.858302810952	0.221244980602
0	833634	536.936238606061	0.018192
0	836123	538.639250763292	0.109152
0	838949	541.177703540019	0.200112
0	838981	541.213492568005	0.018192
0	840433	541.99333292341	0.054576
0	840468	542.008574942796	0.145536
0	842433	543.28193572029	0.163728
0	843958	544.151642138437	0.109152
0	844807	544.739887412268	0.095228691588
0	848217	547.15749347978	0.109152
0	848762	547.625706606314	0.09096
0	848988	547.738076628124	0.218304
0	849164	547.933811657873	0.200112
0	850011	548.781986600157	0.109152
0	851311	549.51069400878	0.218304
0	852664	550.399895842626	0.036384
0	852766	550.439137024914	0.163728
0	853477	551.102492742019	0.109152
0	854239	551.702216149138	0.036384
0	854595	551.949798646595	0.163728
0	858753	554.626710656819	0.09096
0	860583	555.748609434032	0.200112
0	860895	556.012603347587	0.200112
0	864886	558.959792290437	0.09096
0	865263	559.130451208356	0.09096
0	865309	559.162422955022	0.109152
0	866792	560.137509543819	0.163728
0	867126	560.291857026019	0.038234035121
0	867553	560.5060579914	0.220777237282
0	868213	561.061304325492	0.018192
0	868457	561.20616324112	0.09096
0	871997	563.09817854525	0.109152
0	872946	563.702916398926	0.109152
0	873393	564.089567476641	0.145536
0	873529	564.150483525331	0.200112
0	874446	565.03767198621	0.200112
0	874630	565.212579831103	0.072768
0	879164	568.435130496631	0.054576
0	879369	568.534986176624	0.18192
0	880578	569.516867611962	0.109152
0	880692	569.559260560488	0.109152
0	881075	569.779625099717	0.200112
0	883219	571.537624064044	0.218304
0	885049	572.782552608728	0.036384
0	886133	573.471851845516	0.018192
0	888218	575.034640637353	0.218304
0	888918	575.525631759221	0.109152
0	893523	578.342171303644	0.200112
0	894363	578.865401448851	0.127344
0	899515	581.879823955492	0.109152
0	899530	581.888015955492	0.224314277906
0	905555	585.353443069853	0
0	905686	585.43922254071	0.109152
0	905970	585.648391775721	0.200112
0	907071	586.278714575218	0.036384
0	907299	586.381735922307	0.163728
0	907509	586.45051171634	0.072768
0	909801	587.777688317572	0.018192
0	910566	588.244927145354	0.036384
0	911168	588.501581813505	0.072768
0	912223	589.297909542029	0.200112
0	912552	589.442182664837	0.200112
0	914705	590.895760938611	0.202940701289
0	915450	591.408689978854	0.200112
0	916170	592.00156452022	0.109152
0	916786	592.525189642447	0.200112
0	918544	593.467014241856	0.072768
0	920207	594.426247199829	0.200112
0	920979	594.968557042671	0.200112
0	921858	595.66981299775	0.141880087572
0	925622	598.001650294612	0.109152
0	927069	599.009604038788	0.163728
0	927629	599.528743864977	0.036384
0	928699	600.179554170493	0.054576
0	929212	600.395211397029	0.218304
0	930820	601.373396560046	0.206105859248
0	931538	601.714383288455	0.109152
0	932131	602.029614520518	0.200112
0	933669	603.098851793345	0.072768
0	934517	603.690125935326	0.163728
0	936516	604.91393432075	0.163728
0	938846	606.49720125716	0.109152
0	940379	607.824403289041	0.018192
0	940434	607.867931870366	0.072768
0	940509	607.890470483444	0
0	941456	608.32999278038	0.036384
0	941727	608.502214938949	0.219303223761
0	942718	609.326054897169	0
0	943212	609.548458151082	0.145536
0	944003	610.057227715839	0.109152
0	948713	613.004032054415	0.224649654961
0	949367	613.452411885116	0.20798752688
0	950669	614.575777441478	0.09096
0	951831	615.201604551762	0.127344
0	959510	620.30500409757	0.091520015462
0	959883	620.542018512095	0.218304
0	960029	620.670047104889	0.200112
0	960425	620.953056295816	0.09096
0	960700	621.231945657174	0.145536
0	963236	622.963049703713	0.200112
0	967640	625.957167729865	0.218304
0	968913	626.728718745846	0.200112
0	969125	626.917348349956	0.200112
0	969993	627.362858361871	0.072768
0	971314	628.23218517587	0.109152
0	973121	629.20988941623	0.163728
0	975134	630.478962667446	0.09096
0	975965	631.193078455914	0.127344
0	976674	631.661648977164	0.018192
0	977172	632.010560663356	0.204540724637
0	978741	632.86076515456	0.145536
0	984200	636.471067154977	0.018192
0	986044	637.391668368789	0.109152
0	987655	638.343192451595	0.072768
0	988268	638.640680706348	0.036384
0	988926	638.98216716739	0.200112
0	989543	639.380800331134	0.203140938278
0	993246	641.945644511426	0.072768
0	995665	643.845707779433	0.200112
0	996601	644.266306196751	0.09096
0	997033	644.504965267972	0.163728
0	997710	645.075408456519	0.218304
0	998575	645.58618071265	0.018192
0	1001897	647.297417500391	0.054576
0	1002047	647.415349152149	0.054576
0	1004503	649.252724826088	0.145536
0	1005269	649.781050681468	0.09096
0	1005373	649.818119189445	0.09096
0	1005779	650.136121159791	0.036384
0	1010002	653.181650503961	0.163728
0	1010452	653.384569229535	0.036384
0	1014259	655.579306950031	0.200112
0	1015862	656.939042015309	0.127344
0	1019572	659.130840727052	0.200112
0	1021704	660.703828568346	0.09096
0	1022382	661.224285003306	0
0	1025332	663.075776509459	0.218304
0	1025599	663.304197486325	0.200112
0	1028718	664.967168599676	0.044371154049
0	1029470	665.411877837122	0.219774386113
0	1031585	667.00520777542	0.054576
0	1031970	667.201262482444	0.109152
0	1033070	668.192133210546	0.054576
0	1033887	668.896397028671	0.054576
0	1034863	669.34333400639	0.200112
0	1034947	669.375153915658	0.036384
0	1035130	669.452141403742	0.112408950741
0	1037153	670.66847512248	0.218304
0	1037656	671.085646394302	0.109152
0	1039890	672.361232508985	0.200112
0	1039951	672.400393179321	0.200112
0	1042633	674.336654478071	0.072768
0	1043002	674.529993142174	0.201854111443
0	1044422	675.40226114555	0.09096
0	1045807	676.123773302198	0.200112
0	1046361	676.389614328662	0.109152
0	1046944	676.752050778861	0.054576
0	1047933	677.381511657794	0.018192
0	1049699	678.642538552362	0
0	1051386	679.713661419382	0.109152
0	1056510	683.629849778055	0.109152
0	1056591	683.682825674512	0.109152
0	1061335	686.886642377775	0.109152
0	1061951	687.180339119128	0.127344
0	1066152	689.864667410146	0.109152
0	1066702	690.242834514259	0.054576
0	1068920	691.866322413914	0.036384
0	1072873	694.430612721946	0.109152
0	1073465	694.724220574273	0.220391319714
0	1074338	695.189772390211	0.036384
0	1075486	696.189205380697	0.036384
0	1076593	696.891196582867	0.054576
0	1079501	699.189554260702	0.220185574637
0	1079570	699.254345146448	0.109152
0	1080630	699.927919722824	0.208591959611
0	1083687	701.760762501822	0.218304
0	1084563	702.413026547256	0.036384
0	1086939	704.282735484275	0.163728
0	1087794	704.906690463669	0
0	1089199	705.772382215837	0.018192
0	1091888	707.49190627104	0.109152
0	1093149	708.321690879169	0
0	1093206	708.387037814654	0.200112
0	1094926	709.636820203493	0.078436580105
0	1096645	710.912827407103	0
0	1100541	713.562414711202	0.09096
0	1101046	713.803770561818	0.235770751206
0	1101317	713.965781617868	0.18192
0	1101366	713.983183421302	0.145536
0	1101647	714.1397353696	0.220171651199
0	1102449	714.835855008674	0.109152
0	1104103	715.998310781602	0.054576
0	1104352	716.084766302605	0.200112
0	1104490	716.139305420134	0.09096
0	1104983	716.439084270286	0.200112
0	1106891	717.601863878732	0.203465128436
0	1109742	719.48770798043	0.072768
0	1110622	719.864404550891	0.218304
0	1111938	720.735716968997	0.218304
0	1112795	721.263530975906	0.200112
0	1115134	722.91944986009	0.072768
0	1117418	724.331259170953	0.09096
0	1117704	724.519928578	0.200112
0	1118573	724.966588138966	0.163728
0	1118639	724.996625744837	0.200112
0	1119096	725.208180391445	0.054576
0	1121434	726.683163650553	0.218304
0	1121525	726.716977372923	0
0	1123705	727.606234893197	0.072768
0	1124886	728.363931323101	0.218304
0	1125016	728.446160170374	0.054576
0	1125439	728.708126827328	0.200112
0	1127262	729.90063765603	0.109152
0	1128865	730.847615296646	0.165812448235
0	1129161	730.971417293193	0.200112
0	1129526	731.149533444893	0.200112
0	1130754	731.79277072839	0.018192
0	1130959	731.865107815834	0.054576
0	1130978	731.880045082473	0.200112
0	1131568	732.166643256661	0.200112
0	1132338	732.513950799387	0.163728
0	1134560	733.752631403744	0.200112
0	1137010	735.794893219937	0.218304
0	1137072	735.829054895472	0.145536
0	1137401	736.113623392949	0.219369435332
0	1137608	736.319752386953	0.054576
0	1137891	736.479450565688	0.200112
0	1139665	737.483324229863	0.018192
0	1141226	738.782144735473	0.054576
0	1141755	739.205741729481	0.220357221491
0	1142937	740.128696820952	0.072768
0	1143780	740.77382283384	0.054576
0	1147222	742.86598787405	0.054576
0	1150709	745.382340415766	0.145536
0	1151753	746.17664374649	0.036384
0	1153530	747.429863386842	0.21230130014
0	1156449	749.128286661442	0.145536
0	1158593	750.851732007596	0.072768
0	1159159	751.172647927301	0.163728
0	1160469	751.948368070799	0.018192
0	1162892	753.899286246464	0.018192
0	1166035	756.159243316537	0.18192
0	1166780	756.805485796417	0.072768
0	1167254	757.168864279719	0.218304
0	1167491	757.303111041784	0.200112
0	1167509	757.342328224043	0.145536
0	1168780	758.321664800282	0.054576
0	1169249	758.554707155395	0.09096
0	1174558	761.904286232277	0.109152
0	1175025	762.088397209653	0.205124746179
0	1176629	762.886374249392	0.109152
0	1177825	763.69760598614	0.054576
0	1179612	765.057736854089	0.072850405237
0	1180711	765.749274112351	0.109152
0	1182901	767.570593773783	0.218304
0	1184147	768.056880066542	0.109152
0	1184929	768.685941674886	0.109152
0	1188123	770.549080050248	0.040888810579
0	1188911	771.07084235979	0.145536
0	1189633	771.619331145891	0.127344
0	1190427	772.266158154111	0.109152
0	1191239	772.731887250875	0
0	1192316	773.476097089156	0.218304
0	1192600	773.647962470007	0.200112
0	1192917	773.874237296205	0.163728
0	1193593	774.29479086565	0.036384
0	1195321	775.680751789153	0.054576
0	1195451	775.7795973381	0.200112
0	1196367	776.325390322104	0.218304
0	1197625	777.153204097854	0.054576
0	1197860	777.355179037551	0.200112
0	1199321	778.278425580888	0.072768
0	1205800	782.00429813582	0.072768
0	1206641	782.430059102746	0.054576
0	1207067	782.686230182362	0.09096
0	1207511	783.001225129572	0.018192
0	1208924	784.068726808744	0.018192
0	1209272	784.206559004117	0.163728
0	1211711	785.761368165815	0.145536
0	1212882	786.7402811799	0.018192
0	1213581	787.06556916407	0.018192
0	1214343	787.836614077065	0.09096
0	1215676	788.639658956767	0
0	1216206	788.942422204483	0.109152
0	1217126	789.540944445921	0.036384
0	1218227	790.168598921986	0.188376537171
0	1220682	791.62503104376	0.036384
0	1225244	794.30753916957	0.036384
0	1228536	796.3274756797	0
0	1229438	796.780536291472	0.072768
0	1230773	797.520660704284	0.127344
0	1231067	797.698894716837	0
0	1232237	798.268029805197	0.018192
0	1235281	799.870136705239	0.127344
0	1236325	800.544339321959	0.036384
0	1236578	800.776167148969	0.09096
0	1241111	803.130901794743	0.200112
0	1241272	803.289288603911	0.09096
0	1241482	803.421868324486	0.072768
0	1241495	803.430060324486	0.062736620806
0	1244023	805.306167763339	0.09096
0	1244229	805.527351827107	0.054576
0	1246848	807.015846820071	0.218304
0	1248000	807.694363460777	0.109152
0	1248437	808.019600682709	0.036384
0	1248896	808.332010171424	0.163728
0	1250315	809.281273339642	0.054576
0	1250893	809.756841566742	0.072768
0	1251030	809.807365219637	0.200112
0	1252986	811.123867432622	0.057071029851
0	1255951	813.211772951716	0.218304
0	1256198	813.268043419163	0.09096
0	1257751	814.207239867171	0.200112
0	1259068	814.928077700645	0.218304
0	1259097	814.983123528558	0.018192
0	1260179	815.752212771737	0.145536
0	1261323	816.649895671039	0.145536
0	1262558	817.40095006993	0.200112
0	1263334	817.835471228822	0.200112
0	1266298	819.584817533538	0.09096
0	1266464	819.756510062073	0.200112
0	1267135	820.12917399253	0.114092325374
0	1268583	821.138061268308	0.018192
0	1268722	821.32516251168	0.09096
0	1269517	821.750254008225	0.202347239321
0	1274159	823.789425694263	0.109152
0	1274336	823.92839078984	0
0	1278600	827.112836732944	0.09096
0	1279051	827.355015130229	0.220777735436
0	1282330	829.330893502935	0.109152
0	1283644	830.117870483773	0.109152
0	1284023	830.499375082275	0.145536
0	1286944	832.436501730709	0.072768
0	1288299	833.070930049727	0.18192
0	1290134	834.517081959968	0.018192
0	1290925	834.932315531502	0.072768
0	1291641	835.361716406918	0.163728
0	1297022	838.61851293922	0.163728
0	1297521	838.99713215417	0.127344
0	1298899	839.805333253517	0.200112
0	1299118	839.97961023421	0.200112
0	1300994	841.171454417787	0.036384
0	1303752	842.852689313959	0.145536
0	1304811	843.456876874731	0.054576
0	1307692	845.159960027921	0.200112
0	1308094	845.451196322437	0.163728
0	1308156	845.502823734245	0.036384
0	1308834	845.93650933509	0.109152
0	1310786	847.187415451186	0.206930915055
0	1311008	847.496947059098	0
0	1311452	848.163288575646	0.072768
0	1311774	848.373567720321	0.072768
0	1317301	852.16783836758	0.18192
0	1318435	853.103759244844	0.109152
0	1318548	853.34184618168	0.018192
0	1319798	854.078562862819	0.145536
0	1321445	855.436471288895	0.072768
0	1322928	856.678547673036	0.072768
0	1323959	857.389260674814	0.201708557499
0	1325919	858.755273697118	0.163728
0	1327955	859.887396168686	0.109152
0	1328885	860.576289753792	0.200112
0	1332171	863.180866937557	0.218304
0	1332190	863.200089073102	0.109152
0	1334180	864.645510663407	0
0	1335975	865.824827013928	0.036384
0	1337142	866.379132309644	0.036384
0	1337385	866.58060990673	0.145536
0	1341154	869.499923512934	0.163728
0	1341476	869.69080344767	0.09096
0	1342662	870.228698976309	0.200112
0	1342706	870.264045794184	0.218304
0	1342910	870.345612433192	0.072768
0	1342961	870.439670941355	0.036384
0	1343565	870.764113699161	0
0	1344035	871.061597064197	0.018192
0	1346481	872.884785349859	0.145536
0	1346991	873.125569306483	0.054576
0	1347969	873.702560909345	0.200112
0	1352211	875.664400498785	0.218304
0	1353406	876.573730479298	0.163728
0	1354913	877.788204448117	0.145536
0	1357977	879.615413547249	0.018192
0	1357982	879.623855095058	0.145536
0	1359676	880.592752410459	0.018192
0	1360976	881.504241071807	0.145536
0	1363469	883.213227061608	0.018192
0	1365338	884.205363789181	0.218304
0	1365396	884.222590195153	0.054576
0	1368303	886.133256403988	0.054576
0	1369127	886.603540355346	0.109152
0	1372575	889.212132595094	0.072768
0	1372584	889.220324595094	0.133432298913
0	1373455	889.705275937921	0.200112
0	1375918	891.431919896286	0.163728
0	1376847	892.129604281957	0.167714971807
0	1378287	892.791262025764	0.072768
0	1378378	892.859465229401	0.204484835851
0	1380157	893.999224730996	0.163728
0	1380405	894.140428931861	0.072768
0	1382385	895.420755141186	0.163728
0	1385084	897.34546476939	0.109152
0	1385963	898.21726524932	0.09096
0	1387105	898.934446540807	0.054576
0	1391777	901.512209471605	0.163728
0	1392951	902.175052132103	0.054576
0	1396186	904.630045121426	0.036384
0	1396549	904.813329653215	0.145536
0	1399273	906.287041816142	0.072768
0	1400059	906.996178725074	0.072768
0	1401238	907.759127239079	0.072768
0	1405091	910.228849026408	0.109152
0	1408360	912.690375407669	0.163728
0	1408417	912.728530491752	0.072768
0	1408452	912.787561643744	0.127344
0	1411927	915.758055977255	0.054576
0	1415501	917.938356691438	0.218304
0	1415596	917.971135914104	0.036384
0	1415802	918.162778265069	0
0	1419910	920.92891411988	0.218304
0	1421576	921.906935359288	0.200112
0	1423320	922.896666409324	0.163728
0	1423332	922.904858409324	0.200645787584
0	1424328	923.531186934005	0.036384
0	1425819	924.371900629468	0.054576
0	1428058	926.013497283632	0.203196536562
0	1429946	927.471355321682	0
0	1429978	927.513319023993	0.218304
0	1430689	928.266334934135	0.054576
0	1431231	928.583201755343	0.218304
0	1431639	928.928498334419	0.218304
0	1434780	930.827348883712	0.218304
0	1437519	933.00701150744	0.036384
0	1440632	935.232706221891	0.018192
0	1441094	935.485123790674	0.036384
0	1442113	936.119392126622	0.127344
0	1443234	936.930236215375	0
0	1445059	937.904639762464	0.200112
0	1445940	938.272818344526	0.218304
0	1446002	938.286543775595	0.200112
0	1446027	938.301294622266	0.218304
0	1447672	939.393232720914	0.054576
0	1450059	941.076846802782	0.018192
0	1452500	942.612525891894	0.072768
0	1455325	944.548855910831	0.109152
0	1456629	945.389471265809	0
0	1456952	945.613066897664	0.127344
0	1460674	948.242165293053	0.09096
0	1465894	952.089219375247	0.09096
1	172	0.309465026124	0.218304
1	480	0.557896163722	0.072768
1	1490	1.161509680399	0.09096
1	3291	2.314484422036	0.09096
1	4643	3.385820340498	0.09096
1	5575	4.01346729788	0.186844553128
1	5884	4.168974152471	0.127344
1	7427	4.99918439215	0.036384
1	7895	5.298029540442	0.127344
1	10776	7.15336064026	0.127344
1	12081	8.096780446026	0.109152
1	12574	8.356135331919	0.127344
1	14739	10.143262205159	0.18192
1	14832	10.232858251558	0.109152
1	14861	10.263088670895	0.236496
1	15039	10.374449540953	0.218304
1	15895	11.048881023324	0.182714062002
1	19380	13.292568542868	0.054576
1	19417	13.318042429447	0.018192
1	19637	13.412316881429	0.109152
1	19977	13.796388453126	0.109152
1	20691	14.262870373716	0.127344
1	21605	14.958158676988	0.09096
1	23758	16.224075166282	0.167330922259
1	24166	16.463767276231	0.054576
1	24479	16.925445969032	0.054576
1	25569	17.896593557917	0.127344
1	27200	18.987577497039	0.218304
1	28656	20.035553548371	0.188988979105
1	30544	21.215972368407	0.09096
1	30741	21.331707265752	0.09096
1	34294	24.181618423567	0.09096
1	34323	24.203759634931	0.109152
1	36622	25.562146592029	0.18192
1	37085	25.799411099244	0.236496
1	38258	26.417723965562	0.054576
1	39891	27.363894579705	0.18192
1	41002	28.151287711051	0.054576
1	41475	28.700955639945	0.072768
1	43611	30.077159033157	0.183768240878
1	44225	30.420404594803	0.109152
1	45326	31.047804758372	0.109152
1	45955	31.555989954364	0.163728
1	46617	32.26030420881	0.072768
1	47231	32.848387752235	0.036384
1	47840	33.219766786597	0
1	49402	34.022642126266	0.218304
1	49589	34.208300645353	0.236496
1	51763	35.444662759018	0.145536
1	51774	35.479294347636	0.236675595303
1	51929	35.65760110745	0.072768
1	52728	36.164823422738	0.078083095636
1	53724	37.190724458326	0.218304
1	55683	38.323571331649	0.134983967414
1	57762	39.737540086482	0.054576
1	58977	40.673915513131	0.18192
1	61980	42.899958293933	0.127344
1	65849	45.093947801192	0.236496
1	66439	45.377397468065	0.054576
1	70290	47.962368718842	0.218304
1	72794	49.906847309211	0.145536
1	77656	52.949185861899	0.072768
1	82847	56.049588132622	0.243868186574
1	83244	56.237658581412	0.127344
1	85245	57.545167774869	0.23906781181
1	86002	58.050401912056	0.163728
1	86426	58.271180676596	0.218304
1	86478	58.33131477434	0.18192
1	88306	59.390689445694	0.18192
1	90157	60.400798824548	0.218304
1	90262	60.4324047894	0.09096
1	91039	60.815046122494	0.127344
1	93875	63.05462482121	0.218304
1	94651	63.415878212907	0.073970458518
1	94824	63.479216252489	0.09096
1	94965	63.576928384257	0.127344
1	95236	63.829910507154	0.109152
1	98872	65.715039893848	0.18192
1	101004	66.963930110997	0.236496
1	102140	68.056909550666	0.236496
1	102269	68.110275229779	0.054576
1	103802	68.847158009795	0.200112
1	104281	69.082777087175	0.072768
1	104836	69.350554241774	0.072768
1	105247	69.58815541857	0.127344
1	105701	69.761055980281	0.218304
1	110267	72.737821098079	0.09096
1	112440	74.475018933539	0.09096
1	113418	75.180066524663	0.09096
1	113972	75.527450545926	0.128974446701
1	115470	76.499847472747	0.054576
1	116532	77.347809057242	0.072768
1	120407	80.020173395464	0.109152
1	121604	80.714640087542	0.224603710201
1	123681	82.229788940082	0
1	124168	82.504974293529	0.166739108671
1	124720	82.777307695567	0.243715564104
1	129913	86.177378907987	0.072768
1	130906	86.813626492522	0.236496
1	131181	86.936619747667	0.236496
1	131211	86.958028262573	0.218304
1	135762	89.726753733017	0.163728
1	136164	90.061967940985	0.072768
1	138119	91.172529321139	0.09096
1	142499	93.293828386071	0.229182450986
1	146470	96.129182189353	0.145536
1	146667	96.214630388146	0.036384
1	147488	96.599968467741	0.072768
1	147516	96.623058472172	0.218304
1	148155	97.125510652406	0.218304
1	150280	98.572977819559	0.236496
1	150331	98.651315285935	0.09096
1	150995	99.142194398771	0.072768
1	151575	99.567123892857	0.236496
1	153761	100.916977106455	0.127344
1	154725	101.601494489823	0.18192
1	156867	102.795040962195	0.109152
1	157576	103.097181401182	0.237794297027
1	157767	103.179918095693	0.218304
1	161379	105.173126973605	0.09096
1	162676	106.045512261006	0.225252349198
1	163953	106.765052391116	0.236496
1	165816	107.952377879568	0.18192
1	166543	108.259319979532	0.127344
1	169530	110.047971909547	0.200112
1	169991	110.237798866151	0.218304
1	170146	110.33477468102	0.127344
1	170449	110.641583151418	0.127344
1	172067	111.511745186464	0.200112
1	173122	112.300889686804	0.127344
1	173836	112.774566463805	0.054576
1	179159	115.934611436018	0.18192
1	181132	117.128396997757	0.163728
1	185095	119.289117845244	0.18192
1	186424	119.89738528355	0.220112975872
1	188550	121.329588047647	0.18192
1	191733	123.358619619892	0.163728
1	196274	126.280341810021	0.127344
1	197884	127.180893499932	0.242414461019
1	200819	128.995000001051	0.218726932433
1	204100	131.070080005335	0.054576
1	207670	133.186068231969	0.163728
1	209436	134.308533935898	0.165744972813
1	211280	135.419013644775	0.145536
1	214161	136.815724423399	0.09096
1	219486	139.861257209779	0.223983015481
1	220702	140.467279114542	0.109152
1	222721	141.864556898061	0.054576
1	223335	142.06690942613	0.243125340891
1	224028	142.51261131888	0.072768
1	224287	142.62253374103	0.054576
1	225032	143.251617515996	0.109152
1	226264	144.034199239411	0.09096
1	227091	144.604975013097	0.072768
1	227794	144.998692758534	0.129289325749
1	228591	145.450985058188	0.127344
1	228820	145.667261300959	0.127344
1	229895	146.288614467214	0.236496
1	231021	146.997571693612	0
1	231180	147.10149543429	0.127344
1	233111	148.628829826278	0.09096
1	236884	150.740271717677	0.127344
1	237474	151.229991277117	0.054576
1	238558	152.179861242363	0.09096
1	240351	153.422606363624	0.109152
1	241167	153.951469933759	0.236496
1	241921	154.402155947384	0.054576
1	242083	154.536981100675	0.163728
1	243903	155.463981676545	0.054576
1	245731	156.598499028924	0.127344
1	246245	156.806581298982	0.218304
1	248243	158.516477861712	0.036384
1	250290	159.919547848995	0.236496
1	251223	160.445761628763	0.09096
1	253344	161.932799142891	0.018192
1	256577	163.403875695519	0.109152
1	257352	163.756708991804	0.163728
1	258259	164.348335290469	0.127344
1	262052	166.619215987871	0.09096
1	262388	166.895753409366	0.18192
1	264592	168.41110208852	0.109152
1	265673	169.142916396628	0.127344
1	270174	172.68197512501	0.163728
1	273323	174.469894520588	0.218304
1	274191	175.159509718216	0.09096
1	274510	175.320733490752	0.236496
1	276357	176.470076674518	0.09096
1	278145	177.62310212057	0.18192
1	278382	177.805628823148	0.127344
1	286882	183.209921865704	0.18192
1	287292	183.500824618221	0.127344
1	288520	184.201012735634	0.127344
1	293762	187.190666944071	0.163728
1	296331	188.895869435855	0.18192
1	298706	191.173121936072	0.127344
1	299688	191.753925439301	0.127344
1	302010	193.012204195854	0.236496
1	303889	194.241964602131	0.09096
1	306586	196.062025620058	0.09096
1	307265	196.497982448007	0.09096
1	307946	197.091667535455	0.200112
1	312807	199.843036983676	0.18192
1	312835	199.87698328328	0.109152
1	318459	204.507077406133	0.072768
1	320180	205.503928901416	0.218304
1	323770	207.749394489531	0.18192
1	324746	208.3457160315	0.18192
1	325164	208.616339735095	0.163728
1	325527	208.72681741269	0.09096
1	326505	209.370124587917	0.18192
1	327993	210.326788620663	0.236496
1	331544	212.155464744818	0.236496
1	332410	212.85349572642	0.127344
1	333960	213.898194705161	0.18192
1	337342	216.166044971755	0.054576
1	339121	217.078366615855	0.109152
1	339196	217.116222694246	0.163728
1	340222	217.904560647368	0.109152
1	344612	220.677192149867	0.18192
1	344750	220.767257456035	0.163728
1	345041	221.000232564153	0.036384
1	345224	221.087410832505	0.072768
1	346630	221.903064389505	0
1	348953	223.38033954113	0.127344
1	350154	224.083635402451	0
1	351543	225.265738786418	0.09096
1	352154	225.872312257021	0.109152
1	352240	225.933292609369	0.236496
1	353015	226.24376118356	0.09096
1	357118	228.475453970903	0.09096
1	357798	228.997990061912	0.218304
1	358317	229.226005504913	0.09096
1	358835	229.491494246772	0.127344
1	362692	231.980141233296	0.127344
1	363859	232.440802381111	0.072768
1	364819	233.389265046654	0.145536
1	365704	234.029829011197	0.127344
1	368792	236.315467995586	0.018192
1	368992	236.42759339257	0.072768
1	370554	237.415090637613	0.200112
1	371464	237.774297345268	0.163728
1	372261	238.096615661149	0.218304
1	373799	238.92073545221	0.072768
1	373866	238.967982794165	0.163728
1	376435	240.883063424966	0.218304
1	378200	241.983342916018	0.036384
1	381304	243.801287936134	0.163728
1	385265	246.246909100573	0.218304
1	386528	246.96831385462	0.236496
1	387660	247.504975716913	0.127344
1	388827	248.031108057529	0.163728
1	389910	248.962779258064	0.133722562592
1	390253	249.230262394649	0.220183028294
1	390856	249.659580140056	0.054576
1	394129	252.188765031485	0.243613272317
1	397126	254.157928798404	0.242658664277
1	399950	255.96558263326	0.20077750021
1	401759	257.442476692147	0.218304
1	402644	258.144534024759	0.054576
1	405557	260.125613021444	0.072768
1	405794	260.319261929132	0.072768
1	406594	260.987841256695	0.036384
1	407703	261.686911838751	0.054576
1	407937	261.922157093715	0.072768
1	411381	264.231956105604	0.163728
1	411457	264.286727369648	0.236496
1	413496	265.393231114329	0.09096
1	414131	265.705895856729	0.127344
1	416307	267.389230778011	0.163728
1	417649	268.634040466657	0.054576
1	417732	268.69435512141	0.218304
1	418922	269.087210772641	0.127344
1	419654	269.592959135406	0.18192
1	419747	269.640662023176	0.018192
1	421157	270.496095003268	0.09096
1	421395	270.711057772736	0.18192
1	423166	272.007442805461	0.018192
1	424831	273.189898806891	0.018192
1	430652	276.876467546691	0.218556535312
1	430964	277.243816452716	0.163728
1	432597	278.438553494488	0.18192
1	433192	278.766246158488	0.09096
1	433849	279.114455779134	0.109152
1	434988	279.967316301849	0.218304
1	435354	280.365058421626	0.218304
1	435631	280.523565468837	0.072768
1	436068	280.825278799679	0.127344
1	438861	282.805293329033	0.236496
1	441560	284.557261441091	0.109152
1	441569	284.565453441091	0.061799382693
1	443673	285.817292502473	0.127344
1	452096	292.021977425763	0.218304
1	453094	292.552889479103	0.236496
1	453144	292.585094578698	0.127344
1	453906	293.095104047982	0.236496
1	461836	298.087599791383	0.054576
1	462104	298.288108727047	0.127344
1	462913	298.882505175677	0.236496
1	463979	299.610401712094	0.200112
1	467514	301.74296087105	0.072768
1	471790	304.34250385289	0.18192
1	471838	304.36940535238	0.018192
1	472081	304.54476312703	0.127344
1	472099	304.557121286431	0.109152
1	472172	304.617726654275	0.218304
1	473298	305.06558510881	0.218304
1	478495	308.198710644918	0.218304
1	478816	308.494019488661	0.18192
1	480477	309.350649193124	0.127344
1	480699	309.566048413544	0.054576
1	481059	309.847356813713	0.109152
1	482701	310.943582803012	0.218304
1	483021	311.051468769467	0
1	483580	311.463938711633	0.200112
1	483707	311.620518144945	0.218304
1	484235	311.891071705821	0.236496
1	485038	312.432207457897	0.127344
1	485335	312.595395957376	0.018192
1	490739	315.53391253781	0.09096
1	491038	315.643880278345	0.218304
1	493202	317.169034996285	0.218304
1	494418	317.794176077232	0.09096
1	495373	318.211714118423	0.054576
1	499177	320.930782778111	0.145536
1	499183	320.938974778111	0.093441589433
1	501666	322.585332353453	0.09096
1	505602	325.542402107251	0.218304
1	507654	326.980094792028	0.036384
1	511374	328.981170605574	0.219332879932
1	512225	329.621822291078	0.163728
1	517897	333.054958495241	0.09096
1	519089	333.697946458344	0.236496
1	520369	334.640616062702	0.072768
1	522706	336.14780260867	0.18192
1	522750	336.163015987035	0.236496
1	526799	338.094002012874	0.236496
1	529060	339.237293298316	0.09096
1	534608	342.750295211154	0.127344
1	534623	342.768537720614	0.218304
1	535141	343.094968496651	0
1	536212	343.789455134162	0.163728
1	536298	343.813548930904	0.054576
1	537372	344.642141042776	0.127344
1	537881	344.986760489331	0.218304
1	537948	345.138595970338	0.18192
1	538655	345.981626792765	0.127344
1	539051	346.191966757217	0.109152
1	540686	347.009943654357	0.127344
1	540792	347.061975401536	0.163728
1	541501	347.450597902641	0.236496
1	548263	351.738955763045	0.18192
1	553082	354.861007599137	0.072768
1	555261	356.558260071862	0.236496
1	556726	357.199061678081	0.236496
1	558114	357.924097030881	0.236496
1	561015	359.950432863825	0.127344
1	562210	360.994265391263	0.163728
1	565840	362.725798686758	0.054576
1	569234	364.914446666884	0.236496
1	572950	367.136048643744	0.218304
1	579163	370.665566461054	0.18192
1	579292	370.804250865163	0
1	580372	371.644237294959	0.127344
1	582586	373.336259059402	0.127344
1	584309	374.435236035817	0.18192
1	586021	375.655433339384	0.22754765515
1	586919	376.250529637653	0.218304
1	590592	378.384839638867	0.09096
1	590618	378.406309058569	0.127344
1	592095	379.213585334973	0.054576
1	593623	380.173510082273	0.163728
1	593744	380.276002209316	0.163728
1	595071	381.195318280075	0.218304
1	596503	382.017106887896	0.236496
1	599935	384.510629245264	0.127344
1	602248	386.195738603562	0.018192
1	602517	386.329073978677	0.109152
1	604253	387.792302852141	0.163728
1	606946	389.303989665944	0.236496
1	609560	390.864860751389	0.072768
1	610887	391.753055891027	0.163728
1	612974	393.480311366025	0.163728
1	613846	393.962212754218	0.236496
1	614732	394.483566674731	0.218304
1	615466	395.066570445042	0.127344
1	615770	395.312209933513	0.09096
1	618521	397.516851618125	0.236496
1	618972	397.694506342869	0.236496
1	619131	397.75368338956	0.18192
1	620092	398.450455823725	0.127344
1	623407	400.684384167619	0.163728
1	624236	401.228361713496	0.236496
1	626814	402.901462062014	0.218304
1	630882	405.779272232991	0.236496
1	631138	405.888076415888	0.09096
1	632015	406.279656221663	0.236496
1	632313	406.389436724978	0.054576
1	634624	408.047842774223	0.072768
1	638904	410.339056341197	0.109152
1	640939	411.306628393048	0.072768
1	643192	412.576840531756	0.200112
1	643601	412.780697884123	0.218304
1	643672	412.815610561572	0.236496
1	644105	413.371378497101	0.218304
1	646352	414.825016560657	0.109152
1	646969	415.201827519483	0.127344
1	647037	415.296922065422	0.218304
1	651832	418.174804075824	0.072768
1	651988	418.286593590189	0.218304
1	652964	418.803569281847	0.09096
1	656547	420.926564180264	0.054576
1	657300	421.369257402793	0.127344
1	659384	422.792660909785	0.09096
1	659618	422.948513087674	0.163728
1	668598	429.658409594987	0.018192
1	668739	429.716699745511	0.09096
1	669707	430.19526165994	0.163728
1	672953	431.682178887187	0.236496
1	677420	434.917995588825	0.127344
1	679520	436.31778811986	0.127344
1	684044	439.014600761592	0.09096
1	684769	439.526972360314	0.200112
1	685564	440.097507064151	0.241681164705
1	686876	440.976308476329	0.127344
1	687423	441.20456193919	0.054576
1	689020	442.063773387063	0.09096
1	689799	442.425092398082	0.127344
1	691631	443.766876030005	0.163728
1	693922	445.535190352141	0.127344
1	695717	446.659666087122	0.188027242287
1	695863	446.733470549861	0.113451527986
1	696470	447.099523663516	0.145536
1	696936	447.404578761821	0.163728
1	697504	447.773291921714	0.218304
1	697956	448.098083275679	0.127344
1	699613	449.262923028607	0
1	700038	449.437628727512	0.127344
1	700484	449.585651321751	0.218304
1	700809	449.728426381525	0.163728
1	706637	452.860912029887	0.236496
1	706805	452.917131063092	0.127344
1	706899	452.943087344726	0.163728
1	709564	455.131720977631	0.200112
1	710854	455.862418689759	0.218304
1	711356	456.288088073937	0.218304
1	711562	456.416800089462	0.054576
1	713672	457.727094865579	0.09096
1	715164	458.693348733464	0.127344
1	716811	459.549770484332	0.236496
1	717357	459.960166014076	0.166843351991
1	719227	461.552811334773	0.09096
1	719392	461.739620777362	0.18192
1	721606	463.266002046307	0.218304
1	722213	463.704209382619	0.224190320488
1	723083	464.224471001392	0.109152
1	724915	465.221493373017	0.218304
1	727291	466.619429738985	0.163728
1	728030	467.180837379764	0.036384
1	728393	467.398278415445	0.109152
1	728497	467.456535062764	0.09096
1	730320	468.767415188819	0.072768
1	731899	469.760763628287	0.127344
1	733460	470.538317489584	0.018192
1	733661	470.601480361649	0.18192
1	735401	471.675645466473	0.236496
1	735739	471.892964680004	0.236496
1	736441	472.515160276394	0.072768
1	736524	472.569929263146	0.109152
1	736971	472.899642687591	0.09096
1	738711	473.896151399807	0.236496
1	739039	473.996408107524	0.109152
1	739603	474.349133520481	0.036384
1	739776	474.537169516701	0.018192
1	740741	475.513581014995	0.218304
1	741433	476.054629100617	0
1	745192	477.99020223505	0.09096
1	745278	478.115262586044	0.109152
1	745707	478.515085035846	0.163728
1	747097	479.273332522645	0.218304
1	747795	479.719394890284	0.163728
1	750581	481.458065903324	0.223867509601
1	751685	482.297576163772	0.109152
1	751821	482.345499277566	0.054576
1	754412	483.962044372596	0.127344
1	755382	484.593227452058	0.072768
1	756042	485.08910516207	0.072768
1	757553	485.887930046868	0.072768
1	758382	486.386961176033	0.218304
1	758834	486.604281656037	0.18192
1	758918	486.647468230123	0.236496
1	761433	488.655402337202	0.225656915823
1	761445	488.665947346996	0.072768
1	762234	489.219382890825	0.09096
1	762311	489.250507433701	0.072768
1	762868	489.72697164825	0.127344
1	763205	489.951801657515	0.200112
1	764952	491.303255013767	0.218304
1	771534	494.935465657555	0.09096
1	772177	495.566168350504	0.109152
1	772931	496.163283803562	0.054576
1	774115	496.843443297653	0.018192
1	776708	498.628929481436	0.145536
1	778361	499.643256138651	0.018192
1	779675	500.642481544295	0.127344
1	781478	501.759703861946	0.054576
1	782087	502.130620011158	0.18192
1	782454	502.363976804535	0.109152
1	783067	502.660115879969	0.218304
1	783616	503.044650288881	0.109152
1	784398	503.411105835435	0.236496
1	787698	505.069059787982	0.127344
1	789819	506.702363520239	0.072768
1	792000	508.153093297512	0.09096
1	792286	508.350016301516	0.018192
1	794012	509.46715734203	0.129737086766
1	796271	510.87333966258	0.206509341643
1	796592	511.105148231179	0.072768
1	800646	513.233832633942	0.2380411614
1	800875	513.442327002101	0.127344
1	801972	514.352057565319	0.145536
1	803632	515.517442182692	0.018192
1	804588	516.339650900325	0.18192
1	806958	518.26569652675	0.163728
1	810747	521.094798605414	0.218304
1	811276	521.587471579185	0.218304
1	811350	521.645089628548	0.236496
1	813346	523.025918438837	0.054576
1	815997	524.663936292991	0.09096
1	816832	525.172314147873	0.054576
1	817116	525.423099648925	0.236496
1	817458	525.714696209362	0.236496
1	820075	527.356164279038	0.109152
1	820293	527.550129196169	0.127344
1	820531	527.793888808948	0.167542502818
1	823758	529.70126441422	0.09096
1	823982	530.013702103345	0.145536
1	824687	530.656968623304	0.09096
1	824883	530.777403321365	0.127344
1	828543	533.573497335905	0.236496
1	829251	534.042212335925	0.018192
1	831521	535.516925779392	0.127344
1	832943	536.420798620906	0.072768
1	835750	538.465804668671	0.09096
1	840366	541.957943875414	0.247990319281
1	841657	542.818262164972	0.163728
1	842653	543.558537284797	0.109152
1	843293	543.859785080685	0.109152
1	844051	544.224970786078	0.249069492301
1	844791	544.728336139093	0.109152
1	846479	545.898129226958	0.072768
1	848164	547.075059357783	0.127344
1	849361	548.304824925102	0.109152
1	852415	550.104823385987	0.054576
1	852458	550.182220818515	0.09096
1	854451	551.884521497827	0.036384
1	855504	552.292665472429	0.246832717549
1	860353	555.603133008021	0.109152
1	861230	556.418565615513	0.127344
1	861250	556.433869314617	0.163728
1	862292	557.133464170707	0.127344
1	865343	559.188806955022	0.135428535778
1	867155	560.301857026019	0.127344
1	867200	560.317294905482	0
1	868661	561.287956885313	0.127344
1	872280	563.253555571443	0.072768
1	872466	563.43552912198	0.072768
1	876802	566.853415947899	0.127344
1	877327	567.565166548556	0.072768
1	882086	570.453441727539	0.236496
1	882184	570.559347991771	0.236496
1	883853	572.02579311626	0.218304
1	884538	572.509813578049	0.127344
1	885502	573.076856819743	0.236496
1	888727	575.44116497552	0.200112
1	889160	575.611306046465	0.127344
1	889427	575.978700118485	0.127344
1	894236	578.72499228155	0.18192
1	896607	580.131171966939	0.127344
1	898954	581.648125714466	0.236496
1	899953	582.17811747186	0.200112
1	900957	582.869935849907	0.220297934039
1	901622	583.20842123919	0.218304
1	902019	583.443173733442	0.018192
1	902597	583.76538340904	0.127344
1	903554	584.253056652667	0.072768
1	905353	585.229218093617	0.109152
1	906877	586.193455878482	0.163728
1	910720	588.308123421785	0.18192
1	911359	588.598247064478	0.127344
1	913648	590.048644093599	0.072768
1	915208	591.287388575899	0.236496
1	916519	592.262331109347	0.236496
1	916969	592.630686858456	0.072768
1	918024	593.160072837102	0.200112
1	924014	596.940724676351	0.072768
1	926160	598.409653074252	0.218304
1	926975	598.971047413065	0.218304
1	927854	599.745773662643	0.072768
1	930651	601.254078976268	0.109152
1	933509	602.854679464641	0.109152
1	933991	603.336787870322	0.218304
1	934789	603.944753095985	0.236496
1	937732	605.841017785384	0.236496
1	937917	605.930716467319	0.18192
1	938741	606.431590627617	0.236496
1	939923	607.422663671711	0.218304
1	939969	607.442402900481	0.127344
1	942095	608.777664873191	0.218304
1	942196	608.996805399489	0.109152
1	942673	609.286292064069	0.236496
1	943083	609.484948026491	0.109152
1	945631	610.987445086554	0.218304
1	946269	611.490824448153	0.116429586399
1	947658	612.51001802276	0.075430025884
1	948470	612.883854338289	0.127344
1	950548	614.531667215973	0.237439234478
1	950766	614.615104033814	0.244107298265
1	953073	616.022282135243	0.220390551881
1	959115	620.000772877976	0.223767610499
1	959360	620.213372932203	0.09096
1	962440	622.497556689326	0.218304
1	968429	626.337911901257	0.127344
1	970021	627.401016140248	0.09096
1	970171	627.506694554445	0.127344
1	970349	627.719005013191	0.018192
1	971914	628.549400790589	0.163728
1	973232	629.283112820398	0.201622380515
1	976060	631.244717457568	0.236496
1	978435	632.701748556311	0.109152
1	984824	636.842807330397	0.18192
1	985424	637.098482385247	0.236496
1	985884	637.282851617878	0.072768
1	986425	637.627390256264	0.236496
1	988185	638.57693619726	0.236496
1	989839	639.583633259791	0.109152
1	991146	640.335200815768	0.054576
1	998412	645.472249635518	0.18192
1	1000908	646.806340147527	0.218304
1	1001866	647.275875114665	0.23922668895
1	1002180	647.568156782201	0.200112
1	1003659	648.799509502321	0.218304
1	1004888	649.550994837842	0.072768
1	1008335	652.195322942402	0.18192
1	1009304	652.894940264988	0.236496
1	1012079	654.237725490334	0.072768
1	1013138	654.93583523552	0.163728
1	1014917	656.206759554797	0.18192
1	1015455	656.604944231392	0.127344
1	1016530	657.324721024972	0.127344
1	1017788	658.157696077177	0.054576
1	1020657	660.156852572735	0.18936574023
1	1022131	661.042124954756	0.236496
1	1024690	662.610916125041	0.072768
1	1025125	662.911801255313	0.036384
1	1027095	664.025883193632	0.18192
1	1028745	664.977168599676	0.218778151128
1	1029536	665.449980779797	0.127344
1	1033681	668.681372282165	0.163728
1	1033796	668.79818961026	0.109152
1	1035222	669.499895423002	0.218304
1	1036067	669.811446038517	0.072768
1	1036551	670.276640681615	0.236496
1	1038383	671.455778036751	0.18192
1	1038431	671.47831236935	0.163728
1	1043160	674.622295355046	0.036384
1	1045026	675.822052136141	0.054576
1	1045726	676.070562961734	0.218304
1	1046546	676.512711957799	0.127344
1	1046707	676.590555449758	0.127567237519
1	1049160	678.33485879062	0.218304
1	1052403	680.401289612185	0.127344
1	1053919	681.424991641124	0.054576
1	1054235	681.849638895056	0.163728
1	1056783	683.798124334215	0.127344
1	1057878	684.426626415153	0.218304
1	1058259	684.729649161891	0
1	1058543	684.964742887762	0.127344
1	1062261	687.383282300321	0.163728
1	1062887	687.751321879818	0.09096
1	1064449	688.689753023729	0.236496
1	1065620	689.601776294624	0
1	1066356	690.005484082074	0.236496
1	1070726	693.039054045481	0.236496
1	1070762	693.086839519969	0.218304
1	1071605	693.491014448214	0.18192
1	1077371	697.452623710894	0.218304
1	1078368	698.249037275227	0.236496
1	1081090	700.133051371585	0.145536
1	1081706	700.517275715924	0.220473226909
1	1082057	700.687557831807	0.200112
1	1088706	705.528276359434	0.072768
1	1089284	705.813239868622	0.238329311078
1	1089522	705.945135155043	0.09096
1	1090015	706.325112022631	0.09096
1	1090203	706.466464134638	0.218304
1	1091952	707.548376015044	0.127344
1	1092381	707.844987903728	0.109152
1	1092543	707.940765045093	0.163728
1	1093678	708.642255002005	0.127344
1	1094287	709.070519358803	0.09096
1	1094806	709.477040239479	0.109152
1	1096403	710.683014478699	0.09096
1	1096640	710.907395773231	0.218304
1	1097179	711.329815133414	0.200112
1	1097933	711.871226029315	0.09096
1	1100190	713.304351370508	0.127344
1	1103735	715.788636014801	0.218304
1	1106438	717.239948948211	0.239295809844
1	1109032	719.097946684118	0.09096
1	1115009	722.869250728238	0.18192
1	1115305	723.02274291536	0
1	1115382	723.085539368248	0.223658619964
1	1116065	723.575652554383	0.236496
1	1117722	724.526661101438	0.054576
1	1119107	725.216601287373	0.218304
1	1122469	727.140616417487	0.218304
1	1123402	727.506382176813	0.09096
1	1124140	727.872156027046	0.18192
1	1124537	728.16007738053	0
1	1126764	729.515734055254	0.218304
1	1128423	730.616538020693	0.054576
1	1128462	730.631644156162	0.163728
1	1135033	734.162462412915	0.200112
1	1135434	734.469034631814	0.218304
1	1136627	735.388847248566	0.236496
1	1138020	736.574283285016	0.09096
1	1138141	736.65820789224	0.018192
1	1138701	736.872766878188	0.220013794869
1	1139392	737.258392495931	0.054576
1	1142663	739.973279665329	0.127344
1	1144765	741.509234468763	0.18192
1	1146177	742.321976632806	0.054576
1	1146380	742.419522833693	0.127344
1	1147885	743.318945008981	0.127344
1	1148735	743.846326457581	0.218304
1	1149321	744.187880389416	0.200112
1	1149814	744.741839502832	0.054576
1	1151316	745.880938286441	0.127344
1	1153165	747.182452143314	0.09096
1	1153606	747.478047919512	0.18192
1	1155059	748.188168246168	0.07326665453
1	1160086	751.593966871244	0.09096
1	1160105	751.607088419648	0.163728
1	1161659	752.90950441404	0.218304
1	1161840	753.148709099594	0
1	1164056	754.754812034977	0
1	1168751	758.297287924587	0.218304
1	1169563	758.765845472888	0.236496
1	1171566	760.366647287993	0.239683913662
1	1174861	762.001716245796	0.18192
1	1178329	764.08665009918	0.127344
1	1179009	764.640179604272	0.218304
1	1179337	764.889869318763	0.236496
1	1180050	765.358393614448	0.09096
1	1183842	767.890297973267	0.127344
1	1185213	768.834538010411	0.21923421573
1	1185602	769.007049652925	0.18192
1	1186492	769.530004459389	0.218304
1	1187499	770.245951474737	0.236496
1	1187715	770.34933651624	0.127344
1	1188542	770.848198795869	0.18192
1	1190111	771.987769951513	0.236496
1	1190715	772.467354333182	0.054576
1	1192427	773.521907071241	0.236496
1	1195859	776.044656651697	0.018192
1	1196056	776.147266202039	0.072768
1	1196452	776.366234743562	0.09096
1	1196739	776.500300266755	0.18192
1	1197622	777.147825353754	0.054576
1	1205352	781.752539750229	0.09096
1	1205943	782.056503094218	0.09096
1	1206360	782.271376341261	0.218304
1	1208042	783.434882181429	0.109152
1	1208166	783.50878069244	0.163728
1	1209834	784.542033052767	0.222202620186
1	1209874	784.583619782793	0.236496
1	1210139	784.794558913482	0.109152
1	1212276	786.028299098105	0.226402525851
1	1219001	790.632371014926	0.163728
1	1222017	792.378126985136	0.168048543159
1	1222984	793.021062643102	0.072768
1	1224696	794.010742532443	0.236496
1	1229502	796.816934205444	0.054576
1	1229838	797.026143755272	0.225253680593
1	1230656	797.430180750225	0.072768
1	1230760	797.502760181282	0.163728
1	1232207	798.213775812591	0.218304
1	1234952	799.756205116991	0.18192
1	1236567	800.765538646205	0.236496
1	1237167	801.131959216053	0.218304
1	1238060	801.689594330127	0.109152
1	1238518	801.849030261092	0.072768
1	1238939	801.994544621131	0.218304
1	1238977	802.006759431948	0.163728
1	1239273	802.101643635073	0.236496
1	1240311	802.738270354096	0.127344
1	1241622	803.502680357554	0.072768
1	1241655	803.524428899944	0.127344
1	1242128	803.946069358189	0.18192
1	1244238	805.530585171373	0.163728
1	1245187	806.063975913334	0.09096
1	1246250	806.842629095348	0.072768
1	1249779	808.821920035689	0.127344
1	1250189	809.155748273189	0.218304
1	1251367	810.028436547514	0.218304
1	1252740	810.889273274581	0.036384
1	1252997	811.133867432622	0.200112
1	1253275	811.31485828523	0.127344
1	1253499	811.520547543354	0.109152
1	1253556	811.554378061498	0.054576
1	1256850	813.660895690643	0.127344
1	1260516	815.956288985829	0.236496
1	1261054	816.486570978932	0.109152
1	1262715	817.499076114059	0.218304
1	1266079	819.327344003452	0.242189547214
1	1266231	819.479474189516	0.036384
1	1267525	820.390615132001	0.236496
1	1268430	821.043416463616	0.163728
1	1268455	821.064315264722	0.127344
1	1272666	823.021737975548	0.09096
1	1273817	823.599629357664	0.236496
1	1274673	824.303968750361	0.09096
1	1275552	825.090716132021	0.127344
1	1276146	825.476025216303	0.218304
1	1276977	825.940041229584	0.210224079612
1	1277337	826.207782624809	0.236496
1	1277872	826.649670270088	0.109152
1	1278673	827.155192630678	0.072768
1	1279740	827.953025516396	0.09096
1	1281050	828.540659490994	0.200112
1	1281461	828.806034308887	0.218304
1	1282269	829.311201267372	0.054576
1	1282459	829.378757601904	0.163728
1	1286135	831.967866135878	0.163728
1	1286521	832.24707560903	0.236496
1	1292167	835.648054426885	0.218304
1	1292723	836.160153201902	0.054576
1	1293907	836.770517583686	0.242435865198
1	1294286	836.968195007194	0.054576
1	1296486	838.100947081893	0.127344
1	1297480	838.927870678284	0.09096
1	1302609	842.245649869687	0.072768
1	1302981	842.386572338081	0.18192
1	1304639	843.36958296484	0.09096
1	1304928	843.492919331237	0.09096
1	1308987	846.035584610901	0.109152
1	1309605	846.329525630989	0.09096
1	1310187	846.704006755253	0.163728
1	1310664	847.109751142965	0.18192
1	1311650	848.298506097906	0.054576
1	1317380	852.194351584099	0.236496
1	1317491	852.266661698253	0.239538196875
1	1319194	853.772808831053	0.18192
1	1319738	854.011752378139	0.109152
1	1320352	854.57657635133	0.109152
1	1320718	854.968973597926	0.127344
1	1322394	856.089023024529	0.09096
1	1322458	856.122166353347	0.238036103309
1	1324304	857.64942272653	0.218304
1	1326378	859.113522759222	0.239084134932
1	1326414	859.130787441298	0.163728
1	1326654	859.266548811885	0.036384
1	1328101	859.942187548909	0.218304
1	1329202	861.027094294909	0.109152
1	1330212	861.829773200032	0.072768
1	1331366	862.569804345804	0.109152
1	1337319	866.52320587749	0.163728
1	1339159	868.105787568446	0.163728
1	1340129	868.807413570772	0.036384
1	1340914	869.372672003823	0.127344
1	1342013	869.88658840478	0.109152
1	1342219	870.028557526593	0.127344
1	1345372	872.279305099359	0.09096
1	1346948	873.090398122147	0.163728
1	1347058	873.257024630015	0.09096
1	1348628	873.954324397575	0.218304
1	1353461	876.606860346487	0.145536
1	1357675	879.421230604916	0.054576
1	1358219	879.797341630333	0.127344
1	1358489	879.987404652442	0.127344
1	1363395	883.105549847407	0.18192
1	1365034	884.049648029933	0.236496
1	1365550	884.296201286122	0.218304
1	1365904	884.545542845914	0.224903701701
1	1369130	886.603789459731	0.109152
1	1370374	887.571464357525	0.109152
1	1371487	888.466502354354	0.200112
1	1372047	888.797890337227	0.127344
1	1373929	890.131438444989	0.072768
1	1375657	891.203869623334	0.127344
1	1376374	891.756337894391	0.18192
1	1377035	892.226264852084	0.09096
1	1377136	892.305303092308	0.218304
1	1378382	892.861273229401	0.163728
1	1379727	893.765431383455	0.109152
1	1382139	895.246908229477	0.127344
1	1383469	896.157969998436	0.222006915176
1	1384119	896.593469038812	0.127344
1	1384225	896.744556851653	0.036384
1	1384232	896.752748851653	0.13008677237
1	1385166	897.410442214091	0.18192
1	1386093	898.296843294234	0.127344
1	1386827	898.73522550595	0.072768
1	1389296	900.109113511642	0.218304
1	1391599	901.442513033308	0.127344
1	1393211	902.373288446795	0.072768
1	1393341	902.452911443342	0.163728
1	1393555	902.551219531332	0.145536
1	1394236	903.012275034842	0.18192
1	1396642	904.845325618284	0.18192
1	1397763	905.554130284846	0.236496
1	1402252	908.305131321869	0.246863620228
1	1402302	908.38950064487	0.054576
1	1402317	908.427357224996	0.072768
1	1403315	908.99796023683	0.109152
1	1406038	910.795522653969	0.218304
1	1408603	912.93624712617	0.127344
1	1408651	912.976541412127	0.127344
1	1408760	913.088538369276	0.109152
1	1409108	913.325599674313	0.127344
1	1410213	914.339595837898	0.127344
1	1411726	915.555508791125	0.127344
1	1411746	915.572928916904	0.134919234554
1	1413092	916.396405198453	0.09096
1	1414228	916.959526144041	0.18192
1	1415758	918.111662629553	0.223516331942
1	1417616	919.277255747345	0.200112
1	1417902	919.46574260514	0.218304
1	1419660	920.631450939642	0.163728
1	1420182	921.185518151416	0.054576
1	1424102	923.268115368756	0.236496
1	1425637	924.263346881318	0.036384
1	1426620	925.056548233773	0.127344
1	1426691	925.113072668207	0.18192
1	1427457	925.762710534242	0.163728
1	1428153	926.076222051112	0.163728
1	1428644	926.389880975167	0.218304
1	1430980	928.440527577125	0.218304
1	1432469	929.389888187905	0.09096
1	1435923	931.57653137518	0.218304
1	1437959	933.348531794591	0.072768
1	1437998	933.393086370345	0.236496
1	1438077	933.46904840359	0.236496
1	1440583	935.188373828826	0.018192
1	1440818	935.351443966168	0.072768
1	1441198	935.568027526102	0.236496
1	1447610	939.236373490542	0.109152
1	1448994	940.430689625434	0.018192
1	1449376	940.738742325535	0.018192
1	1449785	940.97952083974	0.054576
1	1450361	941.198265830554	0.236496
1	1450432	941.230226524721	0.236496
1	1451016	941.511183511395	0.109152
1	1451038	941.519375511395	0.221505051091
1	1452059	942.290029729589	0.018192
1	1455603	944.73738337619	0.072768
1	1455946	944.93424280433	0.238459954356
1	1456149	945.039202704342	0.218304
1	1457485	945.936123922352	0.18192
1	1457761	946.075937571765	0.218304
1	1458937	946.978504825562	0.200112
1	1459180	947.265076762913	0.109152
1	1459743	947.622649593052	0.09096
1	1461231	948.60101814418	0.072768
1	1464359	950.69054295812	0.163728
1	1464981	951.294771564257	0.163728
2	3751	2.748193799689	0.200112
2	6849	4.586934820203	0.018192
2	9371	6.297212673508	0.09096
2	9526	6.433913449756	0.218304
2	10300	6.952021119398	0.094849871686
2	10945	7.219066303119	0.221106731547
2	13076	8.875471447577	0.18192
2	18129	12.552670640179	0.204601197374
2	18492	12.847795311396	0.072768
2	19804	13.631271517254	0.072768
2	20046	13.895734186703	0.109152
2	21215	14.725416409428	0.200112
2	22259	15.361512283975	0.200112
2	22920	15.682443109178	0.218304
2	23218	15.858063051867	0
2	24978	17.376473087193	0.163728
2	25128	17.490681265276	0.145536
2	28096	19.622289432536	0.200112
2	28564	20.00001439152	0.109152
2	30211	21.015749975387	0.072768
2	30325	21.102539199822	0.109152
2	35189	24.807507157271	0.036384
2	39797	27.29052214706	0.200112
2	41764	28.830936784445	0.218304
2	42410	29.165144867799	0.036384
2	44793	30.657875597758	0.145536
2	46538	32.204657247862	0.09096
2	46749	32.394287602915	0
2	47340	32.957389184702	0.072768
2	48843	33.795583008408	0.224256786937
2	49191	33.942037736862	0.036384
2	50081	34.440728349935	0.218304
2	51406	35.254552946482	0.200112
2	54064	37.395872675707	0.109152
2	60226	41.703326460641	0.218304
2	61060	42.401563412826	0.072768
2	61790	42.724806806091	0.207161478208
2	62128	42.96961481941	0.109152
2	62593	43.180663127495	0.163728
2	63876	43.803086988949	0.09096
2	67476	46.281346941297	0.09096
2	71794	49.078561854267	0.09096
2	72947	50.031551637537	0.036384
2	74906	51.001209926463	0.054576
2	76276	51.90930044682	0.200112
2	77209	52.719451107276	0.09096
2	79278	53.908464765118	0.18192
2	79779	54.19127971293	0
2	80331	54.513787515356	0.200112
2	80543	54.628662307066	0.080058025953
2	81091	55.083491677905	0.072768
2	81702	55.430137246596	0.109152
2	82588	55.895883968804	0.145536
2	83797	56.616897765773	0.145536
2	89205	59.943253806729	0.163728
2	91725	61.203273951504	0.076739824029
2	95920	64.062220728651	0.054576
2	96620	64.42093997385	0.127344
2	96904	64.518071406096	0.200112
2	98262	65.26144811192	0.054576
2	98399	65.383397610876	0.127344
2	99676	66.054466245786	0.09096
2	102881	68.396225462815	0.054576
2	106527	70.168623845537	0.109152
2	107709	70.993921624406	0.109152
2	108013	71.123075564535	0.078331691316
2	108447	71.450910209225	0.018192
2	108900	71.784148419564	0.200112
2	112450	74.484889042954	0.072768
2	113243	75.04219739275	0.200112
2	115294	76.297812655415	0.054576
2	115312	76.306004655415	0.226263898092
2	118626	78.470136185053	0.018192
2	118650	78.478328185053	0.223426118579
2	119274	79.029817552121	0.200112
2	119492	79.192783614682	0.145536
2	121725	80.785910684373	0.036384
2	122664	81.439370488378	0.200112
2	124029	82.430195243614	0.109152
2	125514	83.194107997932	0.200112
2	127960	85.007171698299	0.200112
2	129055	85.773233459517	0.145536
2	129556	86.002986849751	0.054576
2	130052	86.278124014306	0.072768
2	130188	86.530870721574	0.163728
2	130243	86.603579522879	0.054576
2	132025	87.623122514792	0.072768
2	135358	89.540043154005	0.054576
2	137069	90.803382911742	0.145536
2	140450	92.237804243169	0.072768
2	142408	93.218807621889	0.224425481007
2	144028	94.393238040707	0.200112
2	144386	94.688032350969	0.200112
2	147507	96.613637178158	0.036384
2	148116	97.106544881761	0.072768
2	153791	100.931470747887	0.145536
2	156943	102.84946848792	0.127344
2	157807	103.193817426866	0.218304
2	160961	104.953000487978	0.13109123733
2	162420	105.983272482987	0.09096
2	168789	109.44975411854	0.054576
2	169238	109.839104257686	0.115583972197
2	169971	110.22457237692	0.036384
2	170134	110.32477468102	0.074343637398
2	170224	110.409497686086	0.200112
2	170904	110.974708019054	0.163728
2	171324	111.165163421267	0.09096
2	171645	111.258655037132	0.109152
2	174203	113.06796637137	0.072768
2	174668	113.405205050073	0.109152
2	176134	114.198226010702	0.200112
2	176152	114.206418010702	0.019655674813
2	177241	114.9713727552	0.171550526558
2	177257	115.000174086703	0.09096
2	180623	116.821956010882	0.054576
2	181422	117.255648183091	0.072768
2	182335	117.625315695585	0.054576
2	183105	118.045422836887	0.200112
2	185975	119.730071198067	0.218304
2	188478	121.243707967996	0.09096
2	189458	121.944079064178	0.200112
2	190371	122.44593965602	0.200112
2	193882	124.786445992793	0.072768
2	194838	125.420680940669	0.163728
2	195876	126.076617463383	0.218304
2	199631	128.322336294851	0.15024885353
2	200805	128.98663649262	0.054576
2	205413	131.801583721691	0.036384
2	210969	135.324446717212	0.072768
2	212625	136.177094853277	0.018192
2	214381	136.953002501451	0.078791935959
[...]
55	680647	436.841347626667	0.036384
55	680899	436.981370836975	0.163728
55	681825	437.456794979797	0.18192
55	682675	438.026990407918	0.145536
55	683183	438.41149939927	0.170449444838
55	683514	438.563249627115	0.152923460032
55	684924	439.5965234908	0.200112
55	686464	440.678235610182	0.205763849821
55	687899	441.535802254041	0.223700869465
55	688681	441.883464933732	0.018192
55	689293	442.233887848359	0.127344
55	689750	442.407767029258	0.147229173555
55	692569	444.387432090372	0.200112
55	694427	445.891766985902	0.018192
55	695456	446.560230385046	0.09096
55	697034	447.478196286891	0.145536
55	697882	447.970475726476	0.145536
55	698557	448.433195615588	0.18192
55	700799	449.725538590163	0.127344
55	702152	450.488681940544	0.170582291909
55	702606	450.726556902413	0.18192
55	703270	450.996415788711	0.163728
55	705897	452.418909279489	0.072768
55	706013	452.532626928976	0.145536
55	709348	455.040555174095	0.163728
55	710689	455.802035505014	0.054576
55	711957	456.658154804571	0.127344
55	713783	457.897679669749	0.127344
55	714466	458.285531587003	0.236496
55	718533	460.858685790027	0.18192
55	718763	461.162886461851	0.109152
55	719253	461.575369842366	0
55	721155	462.995560876225	0.200112
55	724638	465.058110461589	0.153169594642
55	725554	465.611728035293	0.145536
55	726743	466.339776732273	0.145536
55	727369	466.716236868872	0.054576
55	728708	467.668873434833	0.036384
55	729178	467.97867777966	0.236496
55	729690	468.22863998641	0.220022799346
55	730317	468.766611082892	0
55	732099	469.82942281612	0.036384
55	737096	472.946041822451	0.036384
55	737159	472.979078980456	0.239593868217
55	737471	473.257028238071	0.018192
55	738742	473.908739775998	0.186198024577
55	738765	473.916931775998	0.209037890618
55	742761	476.664137613275	0.170074737435
55	745186	477.989043583317	0.18192
55	748338	480.002002841887	0.129188788925
55	753917	483.62134323146	0.018192
55	754138	483.783778822766	0
55	754494	484.052918153349	0.09096
55	759059	486.743801911071	0.127344
55	760323	487.77964664872	0.163728
55	764300	490.933823041294	0.018192
55	765407	491.454511502646	0.164397254817
55	767164	492.384129213402	0.109152
55	768901	493.461572013331	0.152590686282
55	769993	494.124959606493	0.145536
55	772408	495.704502254967	0.200112
55	772537	495.761025133749	0.236496
55	772576	495.800218902588	0.183923341572
55	775100	497.384434771445	0.145536
55	775705	497.945022229311	0.145536
55	775797	498.001339504913	0.163728
55	776090	498.134663626302	0.146052255792
55	779122	500.090199746585	0.072768
55	780381	500.989388483365	0.036384
55	780479	501.060011246728	0.236496
55	781142	501.448436866072	0.072768
55	783669	503.076989297244	0.072768
55	783903	503.163494862544	0.072768
55	784686	503.521019153548	0.109902992654
55	786708	504.449094825292	0
55	787648	505.03949479779	0.072768
55	787731	505.098822772375	0.186386613088
55	788153	505.418658797735	0.018192
55	790819	507.392666758345	0.054576
55	791448	507.767103075891	0.165919349412
55	793071	508.963410665328	0.109152
55	793976	509.431693225373	0.145536
55	798375	512.239167637237	0.145536
55	798702	512.374656221063	0.133319801683
55	801487	513.887137240817	0.18192
55	804538	516.304720789477	0.236496
55	808332	519.10237071277	0.112140772535
55	808856	519.654384378173	0.054576
55	809126	519.842975651237	0.145536
55	809711	520.211283642052	0.163728
55	810741	521.091400903971	0.218304
55	812559	522.468179524146	0.109152
55	816387	524.976367818529	0.036384
55	817826	525.913882780826	0.018192
55	819888	527.176104708919	0.224938349194
55	820669	527.867647023516	0.109152
55	822776	529.100583752871	0.18192
55	822916	529.158771977839	0.134229060003
55	824300	530.262713678483	0.163728
55	828310	533.467533385477	0.127344
55	828571	533.598237275073	0.127344
55	828878	533.796679949208	0.112921523401
55	833054	536.498903739533	0.205746182397
55	833454	536.779557970496	0.170046962861
55	833584	536.879680697345	0.072768
55	835113	538.094425010254	0.222797814972
55	835134	538.118254451083	0.145536
55	835974	538.577887618364	0.200112
55	836296	538.9226113908	0.09096
55	843375	543.943412450169	0.072768
55	844835	544.759671243928	0.184720648856
55	844907	544.824704200863	0.036384
55	847764	546.762338640047	0.09096
55	848066	546.973574646044	0.127344
55	848919	547.70874969486	0.163728
55	850070	548.82860467512	0.200112
55	850686	549.322072816156	0.200112
55	853728	551.293166519288	0.127344
55	856272	553.19552479653	0.163728
55	856309	553.213070141111	0.036384
55	860004	555.312214051948	0.036384
55	864079	558.466169799115	0.18192
55	870967	562.633851987692	0.145536
55	875465	565.995538828995	0.072768
55	876690	566.768286735467	0.127344
55	877145	567.234477400282	0.072768
55	878011	567.923861969103	0.127344
55	878822	568.254803119667	0.203906116835
55	879744	568.885778641021	0.127344
55	881048	569.770760925392	0.145536
55	883141	571.402175312076	0.18192
55	885212	572.897041865904	0.127344
55	888442	575.220597850855	0.218304
55	889338	575.764940085406	0.145536
55	889694	576.17987963001	0.127344
55	891112	577.021505304604	0.163728
55	891746	577.512740082555	0.236496
55	892352	577.878354623848	0.109152
55	892595	577.989793890025	0.072768
55	892811	578.083805328968	0.218304
55	893251	578.245016225513	0.218304
55	894243	578.728398116263	0.036384
55	896224	579.834362945001	0.145536
55	896450	580.010392754713	0.054576
55	897208	580.491615182176	0
55	897931	580.992885239028	0.109152
55	899162	581.743481324897	0.18192
55	899476	581.857610507793	0.18192
55	899665	581.975711164518	0.054576
55	900846	582.787167849907	0.127443283265
55	901668	583.238547789648	0.127344
55	902463	583.684700548842	0.18192
55	902799	583.893019400749	0.127344
55	904584	584.826407096218	0.145536
55	905889	585.587678242063	0.18192
55	907701	586.494575205302	0.036384
55	907944	586.599115724314	0.200112
55	909540	587.584687915864	0.166332953847
55	910906	588.384403534346	0.127344
55	913970	590.295145287368	0.018192
55	914521	590.784251039735	0.09096
55	916525	592.266183295193	0.072768
55	917117	592.727891371892	0.200112
55	917766	592.990694147588	0.200112
55	918010	593.135194839464	0.167825835174
55	921073	595.032529939736	0.018192
55	921077	595.035635614073	0.145536
55	924543	597.274772788762	0.18192
55	924863	597.39962192878	0.145536
55	927104	599.032686532683	0.145536
55	927365	599.368185581957	0.163728
55	928528	600.131765161519	0.218304
55	931506	601.705183705671	0.218304
55	932505	602.249882871605	0.163728
55	933255	602.625860679166	0.131152743424
55	936865	605.125287843501	0.163728
55	937638	605.737560206943	0.145536
55	941089	608.086568761984	0.145536
55	946764	611.729559655036	0.1532586978
55	948040	612.676783328274	0.127344
55	948421	612.862589638225	0.218304
55	949791	613.877262979411	0.018192
55	951016	614.711827847707	0.165040705256
55	951023	614.720847988826	0.127344
55	952214	615.460300733622	0.145536
55	952650	615.808129396583	0.036384
55	953530	616.361877213984	0.018192
55	954895	617.094755248939	0.145536
55	956382	618.24741442637	0.018192
55	958626	619.76676083536	0.109152
55	959516	620.313157130172	0.236496
55	962927	622.822895294228	0.1522944897
55	963499	623.196745379711	0.109152
55	964005	623.6663324252	0.072768
55	966384	625.104604223557	0.145536
55	966684	625.532024907924	0.236496
55	970216	627.556050086522	0
55	972285	628.77917202579	0.036384
55	973472	629.505114227096	0.200112
55	973756	629.685859899681	0.036384
55	974348	630.094371214468	0.18192
55	975107	630.457924967161	0.200112
55	976294	631.354882055863	0.127344
55	979068	633.013965828546	0.18192
55	979502	633.244838376609	0.131952703053
55	985196	636.999307402443	0.127360601522
55	985763	637.245803908945	0.163728
55	988448	638.736600984858	0.127344
55	988979	639.026170473594	0.09096
55	989441	639.291558009032	0.109152
55	989845	639.587017172733	0.09096
55	990681	640.04397649219	0.218304
55	991381	640.635645733541	0.218304
55	991532	640.757273482017	0.072768
55	991813	640.915670145909	0.127344
55	992955	641.731921945681	0.09096
55	994636	643.017166853125	0.163728
55	996941	644.438401780486	0.109152
55	998361	645.419312406208	0.054576
55	999191	645.892920520285	0.018192
55	1002248	647.745642184695	0
55	1003706	648.827543089504	0.145536
55	1006159	650.425824562659	0.11288102311
55	1007501	651.622751344915	0.09096
55	1007700	651.759863982625	0.036384
55	1010287	653.301376144279	0.163728
55	1011231	653.765207502911	0.127344
55	1012854	654.734124927324	0.127344
55	1013073	654.862863636212	0.18192
55	1014310	655.612943468159	0.127344
55	1018697	658.663499948933	0.200112
55	1019183	658.832057928747	0.148314685926
55	1019215	658.847866539286	0.09096
55	1019670	659.291510737682	0.218304
55	1020199	659.671198077695	0.036384
55	1021110	660.412792606049	0.018192
55	1022972	661.530865483769	0.145536
55	1025492	663.222402476774	0.036384
55	1025701	663.379295101331	0.163728
55	1028517	664.841632599676	0.163728
55	1028572	664.872082467807	0.218304
55	1028798	665.030964489763	0.018192
55	1031937	667.162025778755	0.163728
55	1032080	667.313075507798	0.127344
55	1032229	667.505833101673	0.236496
55	1033004	668.114655313751	0.18192
55	1033607	668.611062380874	0.054576
55	1034276	669.112346694036	0.072768
55	1034549	669.251834388662	0.127344
55	1034744	669.311244823901	0.127344
55	1037795	671.178347329533	0.036384
55	1038434	671.478637007526	0.145536
55	1038464	671.4920485685	0.145536
55	1039559	672.149054371685	0.036384
55	1040594	672.719067262437	0.218531952733
55	1040632	672.753640403089	0.135002118514
55	1041815	673.493683477015	0.1338293073
55	1041848	673.601612890085	0.018192
55	1043020	674.542114231277	0.054576
55	1046894	676.724666742842	0.054576
55	1047249	677.020159976083	0.127344
55	1048004	677.447772655479	0.127344
55	1048917	678.159578166825	0.054576
55	1050270	678.908074399274	0.145536
55	1051020	679.244886834066	0.163728
55	1051035	679.27097740623	0.218304
55	1051716	680.010507334956	0.036384
55	1053965	681.595588676637	0.018192
55	1060898	686.340754183426	0.072768
55	1063826	688.325947983706	0.072768
55	1065224	689.429752679703	0.145536
55	1066765	690.281672874292	0.145536
55	1071082	693.290724193628	0.149948164746
55	1072558	694.176724214339	0.163728
55	1075257	696.055392507105	0.054576
55	1076145	696.554189548261	0.139175782055
55	1078334	698.166269275227	0.151549915977
55	1079109	698.92259819797	0.018192
55	1080099	699.675092489771	0.018192
55	1082966	701.231853696238	0.127344
55	1083829	701.971707754312	0.036384
55	1084821	702.47364887876	0.109152
55	1084998	702.53780017336	0.133178227183
55	1085176	702.888948437143	0.036384
55	1087082	704.348255120206	0.18192
55	1089835	706.192807920926	0.145536
55	1095425	709.974919875759	0.072768
55	1097196	711.34072451236	0.036384
55	1097995	711.90694357163	0.109152
55	1098265	712.084751933269	0.18192
55	1104508	716.156510196997	0.145536
55	1107327	717.907003200315	0.036384
55	1109668	719.453192779153	0.036384
55	1110592	719.846489988254	0.17870980587
55	1113658	721.972294436454	0.018192
55	1114197	722.325738142474	0.036384
55	1114598	722.639190692174	0.036384
55	1115397	723.098993933923	0.218304
55	1115431	723.134371030836	0.054576
55	1117017	724.143173196512	0.054576
55	1119081	725.197952000085	0.054576
55	1126361	729.309220054171	0.127344
55	1126724	729.499515203503	0.130777069899
55	1127827	730.168721181204	0.205441832767
55	1127848	730.176913181204	0.245801849492
55	1129385	731.055334780474	0.163728
55	1129995	731.384108788598	0.145536
55	1134973	734.069440029653	0.036384
55	1138458	736.773614878188	0.127344
55	1140434	738.085684317982	0.170964678328
55	1140830	738.302739539169	0.127344
55	1141220	738.772910567373	0.189697476062
55	1142997	740.175158303265	0.109152
55	1143420	740.562430263563	0.018192
55	1143672	740.693284763471	0.200112
55	1145601	741.924985949497	0.145536
55	1147384	743.036994197315	0.018192
55	1149098	744.070542880146	0.036384
55	1150485	745.207582596936	0.145536
55	1152433	746.678169810076	0.127344
55	1152589	746.815890289354	0.127344
55	1157175	749.500672211101	0.145536
55	1161085	752.501725183062	0.054576
55	1161666	752.921109567626	0.218304
55	1164938	755.290770142729	0.207912351322
55	1166237	756.247945507476	0.127344
55	1168396	758.074275964975	0.109152
55	1168452	758.104348557411	0
55	1170357	759.697813984166	0.109152
55	1170643	759.933987812453	0.145536
55	1170801	760.043882320123	0.018192
55	1170971	760.125841528779	0.218304
55	1172439	760.802698556167	0.218304
55	1173463	761.409463134606	0.036384
55	1179795	765.235800011365	0.145536
55	1180825	765.847545088999	0.145536
55	1181401	766.569812426038	0.163728
55	1182245	767.229123840585	0
55	1184797	768.611633054545	0.133306009355
55	1187547	770.273027218739	0.145536
55	1187912	770.422857943818	0.218304
55	1188247	770.695714709778	0.018192
55	1189065	771.163247018998	0.223161745231
55	1189621	771.605862337435	0.200112
55	1190580	772.414130596641	0.164164688514
55	1193119	773.985705682459	0.036384
55	1194853	775.456182661904	0.036384
55	1195017	775.546491311116	0.127344
55	1195432	775.737856655969	0.18192
55	1196244	776.255422808	0.036384
55	1197985	777.417771710477	0.111987250369
55	1198566	777.873099035616	0.109152
55	1198840	777.99010021418	0.127344
55	1200061	778.791496329735	0.145536
55	1202759	780.355490389076	0.036384
55	1206788	782.51283345752	0.145536
55	1207255	782.777707039341	0.145536
55	1207931	783.334178593144	0.163728
55	1209268	784.20052644617	0.188925157901
55	1209642	784.417171094427	0.054576
55	1209989	784.694146985678	0.145536
55	1210188	784.827581712844	0.18192
55	1210639	785.174514038157	0.036384
55	1211226	785.555709394104	0.036384
55	1216102	788.862094996351	0.145536
55	1217539	789.686032822438	0.18192
55	1218882	790.593287333999	0.054576
55	1219473	790.900499646829	0.127344
55	1219858	791.05892324636	0.145536
55	1220131	791.212497573892	0.127344
55	1220763	791.65912571898	0.127344
55	1224043	793.730112543759	0.109152
55	1224822	794.067517548882	0.163728
55	1225039	794.136237264172	0.145536
55	1225346	794.384267233966	0.169591249371
55	1225882	794.728495167525	0
55	1227193	795.46970544556	0.145536
55	1228719	796.368549940679	0.130551642376
55	1228875	796.409063261797	0.145536
55	1229061	796.478220035012	0.20510433093
55	1229209	796.653450288452	0.218304
55	1232150	798.158129304519	0.127344
55	1233404	798.923682769367	0
55	1233654	799.173991905296	0.018192
55	1233763	799.217444145613	0.206418598028
55	1235341	799.897751908434	0.200112
55	1235605	800.03712276324	0.182864060203
55	1235890	800.226630861733	0.18192
55	1239277	802.10211456879	0.117278199568
55	1239813	802.32946266818	0.15084989174
55	1240573	802.883827411872	0.109152
55	1242478	804.262889741765	0.145536
55	1242957	804.599170797241	0.18192
55	1243984	805.271146663877	0.036384
55	1246878	807.032530217729	0.145536
55	1247806	807.53805794698	0.215483772021
55	1251809	810.266885536222	0.163728
55	1252587	810.827602184713	0.145536
55	1259362	815.162147017518	0.127344
55	1260930	816.273442501127	0.163728
55	1261076	816.505535940825	0.054576
55	1264867	818.694554728524	0.036384
55	1265408	819.04082120009	0.127344
55	1266058	819.313148789378	0.218304
55	1266866	819.995288698937	0.200112
55	1268698	821.271864946246	0.127344
55	1269526	821.754577061309	0.127344
55	1273915	823.619394622342	0.018192
55	1274858	824.525475509201	0.127344
55	1276313	825.531881546693	0.130369167452
55	1277414	826.278913531888	0.218304
55	1287143	832.492673507643	0.14749136782
55	1287560	832.741975651364	0.218304
55	1288387	833.102823791808	0.171862575704
55	1289464	833.890049102536	0.145536
55	1293739	836.634981583686	0.18192
55	1295128	837.526302308399	0.127344
55	1298142	839.276992315785	0.218304
55	1298537	839.51908750093	0.109152
55	1298671	839.59414134108	0.200112
55	1298808	839.720467696217	0.072768
55	1300020	840.63526845049	0.146409667882
55	1300449	840.806113373155	0.163728
55	1301447	841.379070028144	0.223414610585
55	1303651	842.795956759082	0.109152
55	1306238	844.196103827592	0.220814347124
55	1307918	845.348023498545	0.200112
55	1309012	846.04934459584	0.163728
55	1309596	846.323533506853	0.03703872756
55	1310990	847.369426897497	0.127344
55	1313086	849.275215059815	0.150709888434
55	1313276	849.351833360234	0.128683840943
55	1313754	849.658875870039	0.072768
55	1315081	850.589462789073	0.018192
55	1316130	851.737284467403	0.236496
55	1316675	851.960784645653	0.147559410438
55	1318135	852.792611487474	0.218304
55	1318302	852.962073538205	0.127344
55	1319765	854.03089669694	0.168761203877
55	1320468	854.813734438706	0.036384
55	1321016	855.083740746387	0.127344
55	1321686	855.582070000021	0.165633263909
55	1325606	858.520572382809	0.145536
55	1325652	858.549097429813	0.200112
55	1326160	858.977986759222	0.109152
55	1329676	861.311113936612	0.218304
55	1330066	861.710345523087	0.182953960989
55	1330814	862.099890069249	0.200112
55	1335033	865.286446254804	0.200112
55	1336380	866.020091530159	0.127344
55	1337705	866.773428957186	0.218304
55	1339738	868.588371266662	0.163728
55	1342919	870.348114058951	0.163728
55	1344435	871.505027666992	0.109152
55	1345223	872.090374260431	0.036384
55	1345556	872.438518341499	0.036384
55	1345758	872.528553833456	0.134807681334
55	1345781	872.549661218406	0.054576
55	1348433	873.871556397575	0.116915106343
55	1349206	874.251909405726	0.054576
55	1350485	874.862626190598	0.127344
55	1351490	875.347938091617	0.203274065569
55	1353719	876.755822501371	0.109152
55	1359375	880.47508608796	0.205736891081
55	1359688	880.609199423717	0.127344
55	1364993	884.019821986666	0.18873989024
55	1365801	884.446390845914	0.127344
55	1367676	885.590820297092	0.18192
55	1369110	886.587547214353	0.145536
55	1371236	888.244954079177	0.200112
55	1373030	889.421146343689	0.072768
55	1373260	889.538560747688	0.200112
55	1374093	890.264364624743	0.218304
55	1374910	890.800106419749	0.036384
55	1376456	891.80919302199	0.18192
55	1377323	892.415489275033	0.18192
55	1377357	892.42727388909	0.036384
55	1380012	893.925977784624	0.145536
55	1380356	894.119785114016	0.018192
55	1382468	895.488818428113	0.200112
55	1382717	895.668076706866	0.145536
55	1384077	896.557091337698	0.145688308115
55	1385729	897.982044724001	0.200112
55	1386797	898.717465961788	0.150949797748
55	1391740	901.486705962179	0.18192
55	1394449	903.138328284462	0.18192
55	1398203	905.680952638569	0.226067597568
55	1399455	906.560504540229	0.054576
55	1401753	908.022817240537	0.018192
55	1403096	908.815654938322	0.218304
55	1403330	909.01748255511	0.109152
55	1404099	909.598644820317	0.109152
55	1404935	910.156395561031	0.018192
55	1405810	910.63139094036	0.145536
55	1406134	910.838299319483	0.218304
55	1406543	911.395083568856	0.127344
55	1407844	912.271394483232	0.018192
55	1408064	912.517174948231	0.054576
55	1410072	914.244042249347	0.145536
55	1410380	914.48780179342	0.127344
55	1411065	915.044358984186	0.036384
55	1413976	916.864522811354	0.072768
55	1415820	918.175658210416	0.036384
55	1416260	918.474624108334	0.018192
55	1416855	918.792885580726	0.145536
55	1417364	919.118872866898	0.09096
55	1418814	920.277521827357	0.171946984646
55	1420711	921.431852774902	0.127344
55	1421501	921.823832366229	0.145536
55	1423089	922.750277446468	0.218304
55	1424655	923.75417736284	0.09096
55	1425329	924.073635791688	0.200112
55	1429408	927.044909138031	0.163728
55	1435971	931.598033026903	0.236496
55	1438745	933.792550199754	0.145536
55	1439792	934.604499063983	0.127344
55	1441942	935.873116544989	0.018192
55	1442010	935.923394323297	0.09096
55	1443243	936.932861118664	0
55	1446882	938.770991327947	0.127344
55	1447638	939.322033604876	0.09096
55	1449047	940.480978320076	0.127344
55	1451922	942.207556232266	0.152268952738
55	1454150	943.623256312332	0.150279840452
55	1454403	943.791705455647	0.127344
55	1454927	944.22084522279	0.127344
55	1455949	944.935199619736	0.127344
55	1457350	945.817724420533	0.163728
55	1458403	946.630603695168	0.188183249661
55	1459936	947.829313953391	0.127344
55	1460590	948.19378406611	0.145536
55	1461467	948.817422434456	0.18192
55	1463328	950.049918951309	0.018192
55	1464296	950.648045873826	0.127344
55	1464707	951.002801156502	0.18192
55	1465687	951.817327986839	0.163728
